2cm7_ligand
Version: PDBbind v2024

 60 62  0  0  1  0  0  0  0  0999 V2000
   15.0880   -1.1180    0.1110 S   0  0  0  0  0  0  0  0  0  0  0  0
   14.3300    0.1280   -0.6880 O   0  0  0  0  0  0  0  0  0  0  0  0
   14.2690   -2.5450    0.0980 O   0  0  0  0  0  0  0  0  0  0  0  0
   16.1030   -4.3900  -11.3950 O   0  0  0  0  0  0  0  0  0  0  0  0
   19.8780   -4.3810   -4.9910 O   0  0  0  0  0  0  0  0  0  0  0  0
   17.4860   -1.2290    3.0250 O   0  0  0  0  0  0  0  0  0  0  0  0
   19.3690   -3.8640   -8.3870 O   0  0  0  0  0  0  0  0  0  0  0  0
   19.3790   -6.3290   -5.9240 N   0  0  0  0  0  0  0  0  0  0  0  0
   15.7130   -0.7120    1.7690 N   0  0  0  0  0  0  0  0  0  0  0  0
   15.2288   -0.1507    2.4550 H   0  0  0  0  0  0  0  0  0  0  0  0
   18.3060   -4.2250  -11.0260 N   0  0  0  0  0  0  0  0  0  0  0  0
   17.6330   -5.0260   -7.6450 N   0  0  0  0  0  0  0  0  0  0  0  0
   17.2840   -2.8710  -12.8180 C   0  0  0  0  0  0  0  0  0  0  0  0
   18.3050   -9.1930  -13.4040 C   0  0  0  0  0  0  0  0  0  0  0  0
   17.9810   -9.4780  -11.9960 C   0  0  0  0  0  0  0  0  0  0  0  0
   18.9900   -7.9430  -13.7700 C   0  0  0  0  0  0  0  0  0  0  0  0
   18.3320   -8.5130  -10.9580 C   0  0  0  0  0  0  0  0  0  0  0  0
   19.3470   -6.9780  -12.7290 C   0  0  0  0  0  0  0  0  0  0  0  0
   16.7910   -4.5710   -2.8470 C   0  0  0  0  0  0  0  0  0  0  0  0
   16.7080   -2.4540   -4.2630 C   0  0  0  0  0  0  0  0  0  0  0  0
   16.8020   -3.7550   -1.6280 C   0  0  0  0  0  0  0  0  0  0  0  0
   16.7190   -1.6480   -3.0550 C   0  0  0  0  0  0  0  0  0  0  0  0
   17.4780   -1.9420    0.7130 C   0  0  0  0  0  0  0  0  0  0  0  0
   16.7000   -4.7240   -5.4230 C   0  0  0  0  0  0  0  0  0  0  0  0
   19.3730   -6.2750  -10.2500 C   0  0  0  0  0  0  0  0  0  0  0  0
   17.1950   -3.8710  -11.6780 C   0  0  0  0  0  0  0  0  0  0  0  0
   19.1440   -5.0350   -5.7140 C   0  0  0  0  0  0  0  0  0  0  0  0
   16.9200   -1.2760    1.9380 C   0  0  0  0  0  0  0  0  0  0  0  0
   18.4700   -4.6570   -8.6110 C   0  0  0  0  0  0  0  0  0  0  0  0
   16.7560   -1.4220   -0.4900 C   0  0  1  0  0  0  0  0  0  0  0  0
   17.9020   -4.4400   -6.3270 C   0  0  1  0  0  0  0  0  0  0  0  0
   18.2690   -5.2610   -9.9800 C   0  0  1  0  0  0  0  0  0  0  0  0
   19.0120   -7.2610  -11.3200 C   0  0  0  0  0  0  0  0  0  0  0  0
   16.7210   -3.9070   -4.1690 C   0  0  0  0  0  0  0  0  0  0  0  0
   16.7540   -2.2920   -1.7380 C   0  0  0  0  0  0  0  0  0  0  0  0
   20.2743   -6.8022   -5.4944 H   0  0  0  0  0  0  0  0  0  0  0  0
   18.6778   -6.9245   -6.5271 H   0  0  0  0  0  0  0  0  0  0  0  0
   19.2565   -3.7324  -11.2788 H   0  0  0  0  0  0  0  0  0  0  0  0
   16.7874   -5.7169   -7.7775 H   0  0  0  0  0  0  0  0  0  0  0  0
   16.2805   -2.6998  -13.2347 H   0  0  0  0  0  0  0  0  0  0  0  0
   17.9443   -3.2679  -13.6032 H   0  0  0  0  0  0  0  0  0  0  0  0
   17.6917   -1.9212  -12.4416 H   0  0  0  0  0  0  0  0  0  0  0  0
   18.0584   -9.8519  -14.1147 H   0  0  0  0  0  0  0  0  0  0  0  0
   17.5211  -10.3315  -11.7511 H   0  0  0  0  0  0  0  0  0  0  0  0
   19.2108   -7.7535  -14.7267 H   0  0  0  0  0  0  0  0  0  0  0  0
   18.1100   -8.7036  -10.0018 H   0  0  0  0  0  0  0  0  0  0  0  0
   19.8166   -6.1292  -12.9719 H   0  0  0  0  0  0  0  0  0  0  0  0
   16.8305   -5.5683   -2.7858 H   0  0  0  0  0  0  0  0  0  0  0  0
   16.6915   -2.0111   -5.1594 H   0  0  0  0  0  0  0  0  0  0  0  0
   16.8419   -4.1919   -0.7294 H   0  0  0  0  0  0  0  0  0  0  0  0
   16.7026   -0.6503   -3.1215 H   0  0  0  0  0  0  0  0  0  0  0  0
   18.5514   -1.7164    0.6298 H   0  0  0  0  0  0  0  0  0  0  0  0
   17.3370   -3.0301    0.7908 H   0  0  0  0  0  0  0  0  0  0  0  0
   15.7711   -4.4906   -5.9640 H   0  0  0  0  0  0  0  0  0  0  0  0
   16.7000   -5.7858   -5.1357 H   0  0  0  0  0  0  0  0  0  0  0  0
   20.2832   -5.7487  -10.5733 H   0  0  0  0  0  0  0  0  0  0  0  0
   19.5838   -6.8411   -9.3307 H   0  0  0  0  0  0  0  0  0  0  0  0
   17.4309   -0.6488   -0.8858 H   0  0  0  0  0  0  0  0  0  0  0  0
   18.0704   -3.3629   -6.4733 H   0  0  0  0  0  0  0  0  0  0  0  0
   17.2728   -5.7257  -10.0193 H   0  0  0  0  0  0  0  0  0  0  0  0
  1  2  2  0  0  0  0
  1  3  2  0  0  0  0
  1  9  1  0  0  0  0
  1 30  1  0  0  0  0
  4 26  2  0  0  0  0
  5 27  2  0  0  0  0
  6 28  2  0  0  0  0
  7 29  2  0  0  0  0
  8 27  1  0  0  0  0
  8 36  1  0  0  0  0
  8 37  1  0  0  0  0
  9 10  1  0  0  0  0
  9 28  1  0  0  0  0
 11 26  1  0  0  0  0
 11 32  1  0  0  0  0
 11 38  1  0  0  0  0
 12 29  1  0  0  0  0
 12 31  1  0  0  0  0
 12 39  1  0  0  0  0
 13 26  1  0  0  0  0
 13 40  1  0  0  0  0
 13 41  1  0  0  0  0
 13 42  1  0  0  0  0
 14 15  2  0  0  0  0
 14 16  1  0  0  0  0
 14 43  1  0  0  0  0
 15 17  1  0  0  0  0
 15 44  1  0  0  0  0
 16 18  2  0  0  0  0
 16 45  1  0  0  0  0
 17 33  2  0  0  0  0
 17 46  1  0  0  0  0
 18 33  1  0  0  0  0
 18 47  1  0  0  0  0
 19 21  1  0  0  0  0
 19 34  2  0  0  0  0
 19 48  1  0  0  0  0
 20 22  2  0  0  0  0
 20 34  1  0  0  0  0
 20 49  1  0  0  0  0
 21 35  2  0  0  0  0
 21 50  1  0  0  0  0
 22 35  1  0  0  0  0
 22 51  1  0  0  0  0
 23 28  1  0  0  0  0
 23 30  1  0  0  0  0
 23 52  1  0  0  0  0
 23 53  1  0  0  0  0
 24 31  1  0  0  0  0
 24 34  1  0  0  0  0
 24 54  1  0  0  0  0
 24 55  1  0  0  0  0
 25 32  1  0  0  0  0
 25 33  1  0  0  0  0
 25 56  1  0  0  0  0
 25 57  1  0  0  0  0
 27 31  1  0  0  0  0
 29 32  1  0  0  0  0
 30 35  1  0  0  0  0
 30 58  1  0  0  0  0
 31 59  1  0  0  0  0
 32 60  1  0  0  0  0
M  END
$$$$