#    Name:    2cm7_ligand
#    Version:    PDBbind v2024

@<TRIPOS>MOLECULE
2cm7_ligand
   60    62     1     0     0
SMALL
USER_CHARGES

@<TRIPOS>ATOM
      1 C1         16.7560   -1.4220   -0.4900 C.3       1 IZD         0.0000
      2 C2         17.4780   -1.9420    0.7130 C.3       1 IZD         0.0000
      3 C3         16.9200   -1.2760    1.9380 C.2       1 IZD         0.0000
      4 N4         15.7130   -0.7120    1.7690 N.am      1 IZD         0.0000
      5 S5         15.0880   -1.1180    0.1110 S.o2      1 IZD         0.0000
      6 O6         14.3300    0.1280   -0.6880 O.2       1 IZD         0.0000
      7 O7         14.2690   -2.5450    0.0980 O.2       1 IZD         0.0000
      8 O9         17.4860   -1.2290    3.0250 O.2       1 IZD         0.0000
      9 C11        16.7540   -2.2920   -1.7380 C.ar      1 IZD         0.0000
     10 C12        16.8020   -3.7550   -1.6280 C.ar      1 IZD         0.0000
     11 C13        16.7910   -4.5710   -2.8470 C.ar      1 IZD         0.0000
     12 C14        16.7210   -3.9070   -4.1690 C.ar      1 IZD         0.0000
     13 C15        16.7080   -2.4540   -4.2630 C.ar      1 IZD         0.0000
     14 C16        16.7190   -1.6480   -3.0550 C.ar      1 IZD         0.0000
     15 C21        16.7000   -4.7240   -5.4230 C.3       1 IZD         0.0000
     16 C22        17.9020   -4.4400   -6.3270 C.3       1 IZD         0.0000
     17 C25        19.1440   -5.0350   -5.7140 C.2       1 IZD         0.0000
     18 O26        19.8780   -4.3810   -4.9910 O.2       1 IZD         0.0000
     19 N27        19.3790   -6.3290   -5.9240 N.am      1 IZD         0.0000
     20 N45        17.6330   -5.0260   -7.6450 N.am      1 IZD         0.0000
     21 C47        18.4700   -4.6570   -8.6110 C.2       1 IZD         0.0000
     22 C48        18.2690   -5.2610   -9.9800 C.3       1 IZD         0.0000
     23 O49        19.3690   -3.8640   -8.3870 O.2       1 IZD         0.0000
     24 N51        18.3060   -4.2250  -11.0260 N.am      1 IZD         0.0000
     25 C4         19.3730   -6.2750  -10.2500 C.3       1 IZD         0.0000
     26 C5         19.0120   -7.2610  -11.3200 C.ar      1 IZD         0.0000
     27 C30        18.3320   -8.5130  -10.9580 C.ar      1 IZD         0.0000
     28 C31        17.9810   -9.4780  -11.9960 C.ar      1 IZD         0.0000
     29 C6         18.3050   -9.1930  -13.4040 C.ar      1 IZD         0.0000
     30 C33        18.9900   -7.9430  -13.7700 C.ar      1 IZD         0.0000
     31 C34        19.3470   -6.9780  -12.7290 C.ar      1 IZD         0.0000
     32 C67        17.1950   -3.8710  -11.6780 C.2       1 IZD         0.0000
     33 O70        16.1030   -4.3900  -11.3950 O.2       1 IZD         0.0000
     34 C71        17.2840   -2.8710  -12.8180 C.3       1 IZD         0.0000
     35 H          17.4309   -0.6488   -0.8858 H         1 IZD         0.0000
     36 H          17.3364   -3.0306    0.7835 H         1 IZD         0.0000
     37 H          18.5509   -1.7169    0.6225 H         1 IZD         0.0000
     38 H          16.8452   -4.2286   -0.6539 H         1 IZD         0.0000
     39 H          16.8338   -5.6521   -2.7807 H         1 IZD         0.0000
     40 H          16.6901   -1.9739   -5.2347 H         1 IZD         0.0000
     41 H          16.7013   -0.5665   -3.1271 H         1 IZD         0.0000
     42 H          16.7156   -5.7931   -5.1644 H         1 IZD         0.0000
     43 H          15.7866   -4.4979   -5.9927 H         1 IZD         0.0000
     44 H          18.0704   -3.3629   -6.4733 H         1 IZD         0.0000
     45 H          18.7117   -6.9102   -6.5774 H         1 IZD         0.0000
     46 H          20.2404   -6.8165   -5.4441 H         1 IZD         0.0000
     47 H          16.7874   -5.7169   -7.7775 H         1 IZD         0.0000
     48 H          17.2728   -5.7257  -10.0193 H         1 IZD         0.0000
     49 H          19.2565   -3.7324  -11.2788 H         1 IZD         0.0000
     50 H          20.2832   -5.7487  -10.5733 H         1 IZD         0.0000
     51 H          19.5838   -6.8411   -9.3307 H         1 IZD         0.0000
     52 H          18.0914   -8.7196   -9.9214 H         1 IZD         0.0000
     53 H          17.4825  -10.4032  -11.7305 H         1 IZD         0.0000
     54 H          18.0377   -9.9072  -14.1744 H         1 IZD         0.0000
     55 H          19.2294   -7.7376  -14.8071 H         1 IZD         0.0000
     56 H          19.8561   -6.0579  -12.9923 H         1 IZD         0.0000
     57 H          18.3221   -2.5216  -12.9191 H         1 IZD         0.0000
     58 H          16.6277   -2.0140  -12.6061 H         1 IZD         0.0000
     59 H          16.9666   -3.3532  -13.7543 H         1 IZD         0.0000
     60 H          15.2336   -0.1563    2.4482 H         1 IZD         0.0000
@<TRIPOS>BOND
     1    1    2 1
     2    1    5 1
     3    1    9 1
     4    1   35 1
     5    2    3 1
     6    2   36 1
     7    2   37 1
     8    3    4 am
     9    3    8 2
    10    4    5 am
    11    5    6 2
    12    5    7 2
    13    9   10 ar
    14    9   14 ar
    15   10   11 ar
    16   10   38 1
    17   11   12 ar
    18   11   39 1
    19   12   13 ar
    20   12   15 1
    21   13   14 ar
    22   13   40 1
    23   14   41 1
    24   15   16 1
    25   15   42 1
    26   15   43 1
    27   16   17 1
    28   16   20 1
    29   16   44 1
    30   17   18 2
    31   17   19 am
    32   19   45 1
    33   19   46 1
    34   20   21 am
    35   20   47 1
    36   21   22 1
    37   21   23 2
    38   22   24 1
    39   22   25 1
    40   22   48 1
    41   24   32 am
    42   24   49 1
    43   25   26 1
    44   25   50 1
    45   25   51 1
    46   26   27 ar
    47   26   31 ar
    48   27   28 ar
    49   27   52 1
    50   28   29 ar
    51   28   53 1
    52   29   30 ar
    53   29   54 1
    54   30   31 ar
    55   30   55 1
    56   31   56 1
    57   32   33 2
    58   32   34 1
    59   34   57 1
    60   34   58 1
    61   34   59 1
    62    4   60 1

