#    Name:    2clk_ligand
#    Version:    PDBbind v2024

@<TRIPOS>MOLECULE
2clk_ligand
   15    14     1     0     0
SMALL
USER_CHARGES

@<TRIPOS>ATOM
      1 O1         46.9860   27.2870   15.2650 O.2       1 G3H         0.0000
      2 C1         47.9020   28.1380   14.8630 C.2       1 G3H         0.0000
      3 C2         48.3840   28.1090   13.4640 C.3       1 G3H         0.0000
      4 O2         49.1880   29.3230   13.4700 O.3       1 G3H         0.0000
      5 C3         47.2500   28.2580   12.4260 C.3       1 G3H         0.0000
      6 O1P        47.7060   28.0570   11.0750 O.3       1 G3H         0.0000
      7 O2P        46.7000   30.1770   10.1680 O.co2     1 G3H        -0.6667
      8 O3P        48.3290   28.6780    8.8370 O.co2     1 G3H        -0.6667
      9 O4P        49.1550   30.1180   10.7850 O.co2     1 G3H        -0.6667
     10 P          47.9900   29.3520   10.1650 P.3       1 G3H         0.0000
     11 H          48.3139   28.8760   15.5670 H         1 G3H         0.0000
     12 H          48.9244   27.1826   13.2197 H         1 G3H         0.0000
     13 H          50.0495   29.4088   14.1485 H         1 G3H         0.0000
     14 H          46.4650   27.5153   12.6314 H         1 G3H         0.0000
     15 H          46.8236   29.2699   12.4915 H         1 G3H         0.0000
@<TRIPOS>BOND
     1    1    2 2
     2    2    3 1
     3    2   11 1
     4    3    4 1
     5    3    5 1
     6    3   12 1
     7    4   13 1
     8    5    6 1
     9    5   14 1
    10    5   15 1
    11    6   10 1
    12    7   10 ar
    13    8   10 ar
    14    9   10 ar

