2clk_ligand
Version: PDBbind v2024

 15 14  0  0  1  0            999 V2000
   47.9900   29.3520   10.1650 P   0  0  0  0  0  0
   46.7000   30.1770   10.1680 O   0  0  0  0  0  0
   48.3290   28.6780    8.8370 O   0  5  0  0  0  0
   49.1550   30.1180   10.7850 O   0  5  0  0  0  0
   46.9860   27.2870   15.2650 O   0  0  0  0  0  0
   49.1880   29.3230   13.4700 O   0  0  0  0  0  0
   47.7060   28.0570   11.0750 O   0  0  0  0  0  0
   47.9020   28.1380   14.8630 C   0  0  0  0  0  0
   47.2500   28.2580   12.4260 C   0  0  0  0  0  0
   48.3840   28.1090   13.4640 C   0  0  1  0  0  0
   50.0495   29.4088   14.1485 H   0  0  0  0  0  0
   48.3139   28.8760   15.5670 H   0  0  0  0  0  0
   46.8324   29.2708   12.5252 H   0  0  0  0  0  0
   46.4737   27.5163   12.6652 H   0  0  0  0  0  0
   48.9244   27.1826   13.2197 H   0  0  0  0  0  0
  1  2  2  0  0  0
  1  3  1  0  0  0
  1  4  1  0  0  0
  1  7  1  0  0  0
  5  8  2  0  0  0
  6 10  1  0  0  0
  6 11  1  0  0  0
  7  9  1  0  0  0
  8 10  1  0  0  0
  8 12  1  0  0  0
  9 10  1  0  0  0
  9 14  1  0  0  0
  9 13  1  0  0  0
 10 15  1  0  0  0
M  END
$$$$