2clo_ligand
Version: PDBbind v2024

 37 38  0  0  1  0            999 V2000
   48.4710   27.1280   15.8450 S   0  0  0  0  0  0
   48.4010   29.3880    9.9410 P   0  0  0  0  0  0
   47.1070   26.6160   15.8310 O   0  0  0  0  0  0
   48.8360   27.7440   17.1040 O   0  0  0  0  0  0
   49.5860   30.1620   10.4770 O   0  0  0  0  0  0
   48.7570   28.7080    8.7170 O   0  5  0  0  0  0
   47.4070   30.3470    9.6480 O   0  5  0  0  0  0
   48.1510   28.2100   11.0300 O   0  0  0  0  0  0
   48.6980   28.3070   14.6480 N   0  0  2  0  0  0
   47.8530   28.5610   12.3680 C   0  0  0  0  0  0
   48.8440   27.8480   13.2690 C   0  0  0  0  0  0
   51.3630   21.0430   14.3010 C   0  0  0  0  0  0
   50.0890   20.7640   14.8830 C   0  0  0  0  0  0
   52.1590   22.3520   14.6760 C   0  0  0  0  0  0
   49.2780   21.9740   14.9090 C   0  0  0  0  0  0
   50.9820   25.8810   15.4060 C   0  0  0  0  0  0
   51.8040   24.8290   14.9930 C   0  0  0  0  0  0
   49.0650   24.3780   15.6290 C   0  0  0  0  0  0
   49.5570   25.6950   15.6140 C   0  0  0  0  0  0
   51.2900   23.4790   14.9390 C   0  0  0  0  0  0
   49.8620   23.2710   15.1660 C   0  0  0  0  0  0
   48.8996   29.3581   14.9021 H   0  0  0  0  0  0
   47.9430   29.6505   12.4900 H   0  0  0  0  0  0
   46.8262   28.2487   12.6090 H   0  0  0  0  0  0
   49.8648   28.0600   12.9181 H   0  0  0  0  0  0
   48.6574   26.7650   13.2213 H   0  0  0  0  0  0
   52.0661   20.2355   14.5532 H   0  0  0  0  0  0
   51.2598   21.1112   13.2080 H   0  0  0  0  0  0
   49.5742   19.9957   14.2874 H   0  0  0  0  0  0
   50.2277   20.3989   15.9113 H   0  0  0  0  0  0
   52.7579   22.1704   15.5807 H   0  0  0  0  0  0
   52.8248   22.6271   13.8447 H   0  0  0  0  0  0
   48.7894   22.1090   13.9327 H   0  0  0  0  0  0
   48.5118   21.8851   15.6933 H   0  0  0  0  0  0
   51.3846   26.7830   15.5619 H   0  0  0  0  0  0
   52.7524   25.0110   14.7335 H   0  0  0  0  0  0
   48.1404   24.2058   15.9689 H   0  0  0  0  0  0
  1  3  2  0  0  0
  1  4  2  0  0  0
  1  9  1  0  0  0
  1 19  1  0  0  0
  2  5  2  0  0  0
  2  6  1  0  0  0
  2  7  1  0  0  0
  2  8  1  0  0  0
  8 10  1  0  0  0
  9 11  1  0  0  0
  9 22  1  0  0  0
 10 11  1  0  0  0
 10 23  1  0  0  0
 10 24  1  0  0  0
 11 25  1  0  0  0
 11 26  1  0  0  0
 12 13  1  0  0  0
 12 14  1  0  0  0
 12 27  1  0  0  0
 12 28  1  0  0  0
 13 15  1  0  0  0
 13 29  1  0  0  0
 13 30  1  0  0  0
 14 20  1  0  0  0
 14 31  1  0  0  0
 14 32  1  0  0  0
 15 21  1  0  0  0
 15 33  1  0  0  0
 15 34  1  0  0  0
 16 17  1  0  0  0
 16 19  2  0  0  0
 16 35  1  0  0  0
 17 20  2  0  0  0
 17 36  1  0  0  0
 18 19  1  0  0  0
 18 21  2  0  0  0
 18 37  1  0  0  0
 20 21  1  0  0  0
M  END
$$$$