#    Name:    2clo_ligand
#    Version:    PDBbind v2024

@<TRIPOS>MOLECULE
2clo_ligand
   37    38     1     0     0
SMALL
USER_CHARGES

@<TRIPOS>ATOM
      1 S11        48.4710   27.1280   15.8450 S.o2      1 F19         0.0000
      2 P          48.4010   29.3880    9.9410 P.3       1 F19         0.0000
      3 O12        47.1070   26.6160   15.8310 O.2       1 F19         0.0000
      4 O13        48.8360   27.7440   17.1040 O.2       1 F19         0.0000
      5 O20        49.5860   30.1620   10.4770 O.co2     1 F19        -0.6667
      6 O21        48.7570   28.7080    8.7170 O.co2     1 F19        -0.6667
      7 O22        47.4070   30.3470    9.6480 O.co2     1 F19        -0.6667
      8 O17        48.1510   28.2100   11.0300 O.3       1 F19         0.0000
      9 N1         48.6980   28.3070   14.6480 N.am      1 F19         0.0000
     10 C16        47.8530   28.5610   12.3680 C.3       1 F19         0.0000
     11 C18        48.8440   27.8480   13.2690 C.3       1 F19         0.0000
     12 C8         51.3630   21.0430   14.3010 C.3       1 F19         0.0000
     13 C9         50.0890   20.7640   14.8830 C.3       1 F19         0.0000
     14 C7         52.1590   22.3520   14.6760 C.3       1 F19         0.0000
     15 C10        49.2780   21.9740   14.9090 C.3       1 F19         0.0000
     16 C2         50.9820   25.8810   15.4060 C.ar      1 F19         0.0000
     17 C1         51.8040   24.8290   14.9930 C.ar      1 F19         0.0000
     18 C4         49.0650   24.3780   15.6290 C.ar      1 F19         0.0000
     19 C3         49.5570   25.6950   15.6140 C.ar      1 F19         0.0000
     20 C6         51.2900   23.4790   14.9390 C.ar      1 F19         0.0000
     21 C5         49.8620   23.2710   15.1660 C.ar      1 F19         0.0000
     22 H          48.8996   29.3581   14.9021 H         1 F19         0.0000
     23 H          47.9430   29.6505   12.4900 H         1 F19         0.0000
     24 H          46.8262   28.2487   12.6090 H         1 F19         0.0000
     25 H          49.8648   28.0600   12.9181 H         1 F19         0.0000
     26 H          48.6574   26.7650   13.2213 H         1 F19         0.0000
     27 H          52.0661   20.2355   14.5532 H         1 F19         0.0000
     28 H          51.2598   21.1112   13.2080 H         1 F19         0.0000
     29 H          49.5742   19.9957   14.2874 H         1 F19         0.0000
     30 H          50.2277   20.3989   15.9113 H         1 F19         0.0000
     31 H          52.7579   22.1704   15.5807 H         1 F19         0.0000
     32 H          52.8248   22.6271   13.8447 H         1 F19         0.0000
     33 H          48.7894   22.1090   13.9327 H         1 F19         0.0000
     34 H          48.5118   21.8851   15.6933 H         1 F19         0.0000
     35 H          51.4208   26.8642   15.5760 H         1 F19         0.0000
     36 H          52.8378   25.0274   14.7102 H         1 F19         0.0000
     37 H          48.0572   24.1903   15.9995 H         1 F19         0.0000
@<TRIPOS>BOND
     1    1    3 2
     2    1    4 2
     3    1    9 am
     4    1   19 1
     5    2    5 ar
     6    2    6 ar
     7    2    7 ar
     8    2    8 1
     9    8   10 1
    10    9   11 1
    11    9   22 1
    12   10   11 1
    13   10   23 1
    14   10   24 1
    15   11   25 1
    16   11   26 1
    17   12   13 1
    18   12   14 1
    19   12   27 1
    20   12   28 1
    21   13   15 1
    22   13   29 1
    23   13   30 1
    24   14   20 1
    25   14   31 1
    26   14   32 1
    27   15   21 1
    28   15   33 1
    29   15   34 1
    30   16   17 ar
    31   16   19 ar
    32   16   35 1
    33   17   20 ar
    34   17   36 1
    35   18   19 ar
    36   18   21 ar
    37   18   37 1
    38   20   21 ar

