#    Name:    1a4g_ligand
#    Version:    PDBbind v2024

@<TRIPOS>MOLECULE
1a4g_ligand
   43    43     1     0     0
SMALL
USER_CHARGES

@<TRIPOS>ATOM
      1 C1         -2.2500   58.2420   -5.5910 C.2       1 ZMR         0.0000
      2 O1A        -3.1720   59.1980   -5.4520 O.co2     1 ZMR        -0.5000
      3 O1B        -1.3720   58.0410   -4.8130 O.co2     1 ZMR        -0.5000
      4 C2         -2.3300   57.4010   -6.7980 C.2       1 ZMR         0.0000
      5 C3         -1.4680   56.3850   -6.9670 C.2       1 ZMR         0.0000
      6 C4         -1.5020   55.5410   -8.2050 C.3       1 ZMR         0.0000
      7 C5         -2.2900   56.1690   -9.2970 C.3       1 ZMR         0.0000
      8 N5         -2.6540   55.1780  -10.2990 N.am      1 ZMR         0.0000
      9 C10        -2.1140   55.1230  -11.5200 C.2       1 ZMR         0.0000
     10 O10        -1.3800   55.9770  -11.9750 O.2       1 ZMR         0.0000
     11 C11        -2.4680   53.8830  -12.3160 C.3       1 ZMR         0.0000
     12 C6         -3.5940   56.7640   -8.6860 C.3       1 ZMR         0.0000
     13 O6         -3.2710   57.7090   -7.6700 O.3       1 ZMR         0.0000
     14 C7         -4.6460   57.3120   -9.6380 C.3       1 ZMR         0.0000
     15 O7         -3.8180   57.8920  -10.0820 O.3       1 ZMR         0.0000
     16 C8         -5.8270   57.8570   -9.0220 C.3       1 ZMR         0.0000
     17 O8         -6.4010   56.6980   -8.4110 O.3       1 ZMR         0.0000
     18 C9         -6.8360   58.4830   -9.9830 C.3       1 ZMR         0.0000
     19 O9         -7.4390   57.4730  -10.7910 O.3       1 ZMR         0.0000
     20 NE         -0.1890   55.1810   -8.6950 N.pl3     1 ZMR         0.0000
     21 CZ          0.0430   54.0300   -9.3200 C.cat     1 ZMR         1.0000
     22 NH1        -0.8960   53.0810   -9.4020 N.pl3     1 ZMR         0.0000
     23 NH2         1.2160   53.8670   -9.9260 N.pl3     1 ZMR         0.0000
     24 H          -0.7221   56.1616   -6.1900 H         1 ZMR         0.0000
     25 H          -1.9782   54.5937   -7.9120 H         1 ZMR         0.0000
     26 H          -1.6537   56.9094   -9.8039 H         1 ZMR         0.0000
     27 H          -3.4141   54.4168  -10.0690 H         1 ZMR         0.0000
     28 H          -3.1399   53.2457  -11.7224 H         1 ZMR         0.0000
     29 H          -1.5500   53.3259  -12.5545 H         1 ZMR         0.0000
     30 H          -2.9711   54.1774  -13.2489 H         1 ZMR         0.0000
     31 H          -4.1218   55.9398   -8.1839 H         1 ZMR         0.0000
     32 H          -5.1785   56.8724  -10.4943 H         1 ZMR         0.0000
     33 H          -2.9587   57.3704  -10.5286 H         1 ZMR         0.0000
     34 H          -5.5326   58.6463   -8.3147 H         1 ZMR         0.0000
     35 H          -5.8175   56.1130   -7.6849 H         1 ZMR         0.0000
     36 H          -7.6189   58.9990   -9.4077 H         1 ZMR         0.0000
     37 H          -6.3226   59.2060  -10.6339 H         1 ZMR         0.0000
     38 H          -8.1938   57.7477  -11.5425 H         1 ZMR         0.0000
     39 H           0.6578   55.8690   -8.5554 H         1 ZMR         0.0000
     40 H          -1.8643   53.2205   -8.8991 H         1 ZMR         0.0000
     41 H          -0.6999   52.1611   -9.9723 H         1 ZMR         0.0000
     42 H           1.9850   54.6504   -9.8556 H         1 ZMR         0.0000
     43 H           1.4169   52.9488  -10.4975 H         1 ZMR         0.0000
@<TRIPOS>BOND
     1    1    4 1
     2    1    3 ar
     3    1    2 ar
     4    4   13 1
     5    4    5 2
     6    5    6 1
     7    5   24 1
     8    6   20 1
     9    6    7 1
    10    6   25 1
    11    7   12 1
    12    7    8 1
    13    7   26 1
    14    8    9 am
    15    8   27 1
    16    9   11 1
    17    9   10 2
    18   11   28 1
    19   11   29 1
    20   11   30 1
    21   12   14 1
    22   12   13 1
    23   12   31 1
    24   14   16 1
    25   14   15 1
    26   14   32 1
    27   15   33 1
    28   16   18 1
    29   16   17 1
    30   16   34 1
    31   17   35 1
    32   18   19 1
    33   18   36 1
    34   18   37 1
    35   19   38 1
    36   20   21 ar
    37   20   39 1
    38   21   23 ar
    39   21   22 ar
    40   22   40 1
    41   22   41 1
    42   23   42 1
    43   23   43 1

