1a4g_ligand
Version: PDBbind v2024

 43 43  0  0  1  0            999 V2000
   -7.4390   57.4730  -10.7910 O   0  0  0  0  0  0
   -3.1720   59.1980   -5.4520 O   0  0  0  0  0  0
   -1.3720   58.0410   -4.8130 O   0  5  0  0  0  0
   -1.3800   55.9770  -11.9750 O   0  0  0  0  0  0
   -6.4010   56.6980   -8.4110 O   0  0  0  0  0  0
   -3.2710   57.7090   -7.6700 O   0  0  0  0  0  0
   -3.8180   57.8920  -10.0820 O   0  0  0  0  0  0
   -0.8960   53.0810   -9.4020 N   0  3  0  0  0  0
    1.2160   53.8670   -9.9260 N   0  0  0  0  0  0
   -0.1890   55.1810   -8.6950 N   0  0  0  0  0  0
   -2.6540   55.1780  -10.2990 N   0  0  0  0  0  0
   -2.4680   53.8830  -12.3160 C   0  0  0  0  0  0
   -6.8360   58.4830   -9.9830 C   0  0  0  0  0  0
   -1.4680   56.3850   -6.9670 C   0  0  0  0  0  0
   -2.2500   58.2420   -5.5910 C   0  0  0  0  0  0
   -2.1140   55.1230  -11.5200 C   0  0  0  0  0  0
    0.0430   54.0300   -9.3200 C   0  0  0  0  0  0
   -5.8270   57.8570   -9.0220 C   0  0  2  0  0  0
   -2.3300   57.4010   -6.7980 C   0  0  0  0  0  0
   -4.6460   57.3120   -9.6380 C   0  0  2  0  0  0
   -1.5020   55.5410   -8.2050 C   0  0  1  0  0  0
   -2.2900   56.1690   -9.2970 C   0  0  2  0  0  0
   -3.5940   56.7640   -8.6860 C   0  0  1  0  0  0
   -8.1938   57.7477  -11.5425 H   0  0  0  0  0  0
   -7.3403   56.7829   -7.8448 H   0  0  0  0  0  0
   -4.0108   58.5642  -10.9311 H   0  0  0  0  0  0
   -0.6801   52.1373   -9.9243 H   0  0  0  0  0  0
   -1.8842   53.2443   -8.9471 H   0  0  0  0  0  0
    1.4376   52.9263  -10.4513 H   0  0  0  0  0  0
    0.6578   55.8690   -8.5554 H   0  0  0  0  0  0
   -3.4141   54.4168  -10.0690 H   0  0  0  0  0  0
   -1.9801   53.9279  -13.3009 H   0  0  0  0  0  0
   -3.5587   53.8317  -12.4491 H   0  0  0  0  0  0
   -2.1221   52.9894  -11.7758 H   0  0  0  0  0  0
   -6.3173   59.2074  -10.6281 H   0  0  0  0  0  0
   -7.6135   59.0005   -9.4019 H   0  0  0  0  0  0
   -0.7221   56.1616   -6.1900 H   0  0  0  0  0  0
   -5.5326   58.6463   -8.3147 H   0  0  0  0  0  0
   -5.1785   56.8724  -10.4943 H   0  0  0  0  0  0
   -1.9782   54.5937   -7.9120 H   0  0  0  0  0  0
   -1.6537   56.9094   -9.8039 H   0  0  0  0  0  0
   -4.1218   55.9398   -8.1839 H   0  0  0  0  0  0
    1.9643   54.6729   -9.9017 H   0  0  0  0  0  0
  1 13  1  0  0  0
  1 24  1  0  0  0
  2 15  2  0  0  0
  3 15  1  0  0  0
  4 16  2  0  0  0
  5 18  1  0  0  0
  5 25  1  0  0  0
  6 19  1  0  0  0
  6 23  1  0  0  0
  7 20  1  0  0  0
  7 26  1  0  0  0
  8 17  2  0  0  0
  8 27  1  0  0  0
  8 28  1  0  0  0
  9 17  1  0  0  0
  9 29  1  0  0  0
  9 43  1  0  0  0
 10 17  1  0  0  0
 10 21  1  0  0  0
 10 30  1  0  0  0
 11 16  1  0  0  0
 11 22  1  0  0  0
 11 31  1  0  0  0
 12 16  1  0  0  0
 12 32  1  0  0  0
 12 33  1  0  0  0
 12 34  1  0  0  0
 13 18  1  0  0  0
 13 35  1  0  0  0
 13 36  1  0  0  0
 14 19  2  0  0  0
 14 21  1  0  0  0
 14 37  1  0  0  0
 15 19  1  0  0  0
 18 20  1  0  0  0
 18 38  1  0  0  0
 20 23  1  0  0  0
 20 39  1  0  0  0
 21 22  1  0  0  0
 21 40  1  0  0  0
 22 23  1  0  0  0
 22 41  1  0  0  0
 23 42  1  0  0  0
M  END
$$$$