2cll_ligand
Version: PDBbind v2024

 31 31  0  0  1  0            999 V2000
   48.5290   27.3230   15.6800 S   0  0  0  0  0  0
   48.2620   29.5100   10.0110 P   0  0  0  0  0  0
   52.5570   20.4460   14.1890 F   0  0  0  0  0  0
   50.5440   21.0950   13.8210 F   0  0  0  0  0  0
   51.2340   20.7760   15.8540 F   0  0  0  0  0  0
   48.6040   27.5890   17.0940 O   0  0  0  0  0  0
   47.2280   26.9330   15.1680 O   0  0  0  0  0  0
   49.4750   30.4190   10.3990 O   0  0  0  0  0  0
   48.5430   28.7030    8.7770 O   0  5  0  0  0  0
   46.9450   30.2700    9.8790 O   0  5  0  0  0  0
   48.0020   28.4110   11.2390 O   0  0  0  0  0  0
   52.0680   22.5910   14.6990 O   0  0  0  0  0  0
   49.1470   28.6690   14.7930 N   0  0  2  0  0  0
   47.9460   28.8470   12.6220 C   0  0  0  0  0  0
   49.2120   28.5640   13.2910 C   0  0  0  0  0  0
   49.2180   24.6890   15.9940 C   0  0  0  0  0  0
   50.8630   26.0010   14.5500 C   0  0  0  0  0  0
   49.9820   23.4890   15.8260 C   0  0  0  0  0  0
   51.6310   24.8360   14.3760 C   0  0  0  0  0  0
   49.5730   25.9100   15.4160 C   0  0  0  0  0  0
   51.2100   23.6300   14.9810 C   0  0  0  0  0  0
   51.5890   21.2500   14.6450 C   0  0  0  0  0  0
   49.6354   29.5099   15.3072 H   0  0  0  0  0  0
   47.7539   29.9295   12.6577 H   0  0  0  0  0  0
   47.1367   28.3137   13.1421 H   0  0  0  0  0  0
   49.9512   29.2814   12.9050 H   0  0  0  0  0  0
   49.5086   27.5435   13.0073 H   0  0  0  0  0  0
   48.3895   24.6507   16.5527 H   0  0  0  0  0  0
   51.1384   26.8650   14.1285 H   0  0  0  0  0  0
   49.7146   22.6202   16.2428 H   0  0  0  0  0  0
   52.4678   24.8606   13.8290 H   0  0  0  0  0  0
  1  6  2  0  0  0
  1  7  2  0  0  0
  1 13  1  0  0  0
  1 20  1  0  0  0
  2  8  2  0  0  0
  2  9  1  0  0  0
  2 10  1  0  0  0
  2 11  1  0  0  0
  3 22  1  0  0  0
  4 22  1  0  0  0
  5 22  1  0  0  0
 11 14  1  0  0  0
 12 21  1  0  0  0
 12 22  1  0  0  0
 13 15  1  0  0  0
 13 23  1  0  0  0
 14 15  1  0  0  0
 14 24  1  0  0  0
 14 25  1  0  0  0
 15 26  1  0  0  0
 15 27  1  0  0  0
 16 18  2  0  0  0
 16 20  1  0  0  0
 16 28  1  0  0  0
 17 19  1  0  0  0
 17 20  2  0  0  0
 17 29  1  0  0  0
 18 21  1  0  0  0
 18 30  1  0  0  0
 19 21  2  0  0  0
 19 31  1  0  0  0
M  END
$$$$