#    Name:    2cll_ligand
#    Version:    PDBbind v2024

@<TRIPOS>MOLECULE
2cll_ligand
   31    31     1     0     0
SMALL
USER_CHARGES

@<TRIPOS>ATOM
      1 S12        48.5290   27.3230   15.6800 S.o2      1 F9F         0.0000
      2 P17        48.2620   29.5100   10.0110 P.3       1 F9F         0.0000
      3 F9F        52.5570   20.4460   14.1890 F         1 F9F         0.0000
      4 F10        50.5440   21.0950   13.8210 F         1 F9F         0.0000
      5 F11        51.2340   20.7760   15.8540 F         1 F9F         0.0000
      6 O21        48.6040   27.5890   17.0940 O.2       1 F9F         0.0000
      7 O22        47.2280   26.9330   15.1680 O.2       1 F9F         0.0000
      8 O18        49.4750   30.4190   10.3990 O.co2     1 F9F        -0.6667
      9 O19        48.5430   28.7030    8.7770 O.co2     1 F9F        -0.6667
     10 O20        46.9450   30.2700    9.8790 O.co2     1 F9F        -0.6667
     11 O16        48.0020   28.4110   11.2390 O.3       1 F9F         0.0000
     12 O7         52.0680   22.5910   14.6990 O.3       1 F9F         0.0000
     13 N13        49.1470   28.6690   14.7930 N.am      1 F9F         0.0000
     14 C15        47.9460   28.8470   12.6220 C.3       1 F9F         0.0000
     15 C14        49.2120   28.5640   13.2910 C.3       1 F9F         0.0000
     16 C3         49.2180   24.6890   15.9940 C.ar      1 F9F         0.0000
     17 C5         50.8630   26.0010   14.5500 C.ar      1 F9F         0.0000
     18 C2         49.9820   23.4890   15.8260 C.ar      1 F9F         0.0000
     19 C6         51.6310   24.8360   14.3760 C.ar      1 F9F         0.0000
     20 C4         49.5730   25.9100   15.4160 C.ar      1 F9F         0.0000
     21 C1         51.2100   23.6300   14.9810 C.ar      1 F9F         0.0000
     22 C8         51.5890   21.2500   14.6450 C.3       1 F9F         0.0000
     23 H          49.6354   29.5099   15.3072 H         1 F9F         0.0000
     24 H          47.7539   29.9295   12.6577 H         1 F9F         0.0000
     25 H          47.1367   28.3137   13.1421 H         1 F9F         0.0000
     26 H          49.9512   29.2814   12.9050 H         1 F9F         0.0000
     27 H          49.5086   27.5435   13.0073 H         1 F9F         0.0000
     28 H          48.3150   24.6472   16.6030 H         1 F9F         0.0000
     29 H          51.1632   26.9428   14.0906 H         1 F9F         0.0000
     30 H          49.6906   22.5420   16.2803 H         1 F9F         0.0000
     31 H          52.5431   24.8628   13.7797 H         1 F9F         0.0000
@<TRIPOS>BOND
     1    1    6 2
     2    1    7 2
     3    1   13 am
     4    1   20 1
     5    2    8 ar
     6    2    9 ar
     7    2   10 ar
     8    2   11 1
     9    3   22 1
    10    4   22 1
    11    5   22 1
    12   11   14 1
    13   12   21 1
    14   12   22 1
    15   13   15 1
    16   13   23 1
    17   14   15 1
    18   14   24 1
    19   14   25 1
    20   15   26 1
    21   15   27 1
    22   16   18 ar
    23   16   20 ar
    24   16   28 1
    25   17   19 ar
    26   17   20 ar
    27   17   29 1
    28   18   21 ar
    29   18   30 1
    30   19   21 ar
    31   19   31 1

