#    Name:    2clv_ligand
#    Version:    PDBbind v2024

@<TRIPOS>MOLECULE
2clv_ligand
  138   140     1     0     0
SMALL
USER_CHARGES

@<TRIPOS>ATOM
      1 O          15.8460   44.5790    7.0680 O.2       1 SER         0.0000
      2 OG         18.3710   42.3670    5.8010 O.3       1 SER         0.0000
      3 N          14.9870   41.7670    7.2370 N.4       1 SER         1.0000
      4 C          16.4620   43.6850    7.6760 C.2       1 SER         0.0000
      5 CB         16.9830   42.0840    5.8120 C.3       1 SER         0.0000
      6 CA         16.3960   42.2300    7.2200 C.3       1 SER         0.0000
      7 O          19.0560   45.8730    7.7670 O.2       1 GLN         0.0000
      8 OE1        19.7680   47.8030   12.4330 O.2       1 GLN         0.0000
      9 NE2        19.1890   45.8260   13.3390 N.am      1 GLN         0.0000
     10 N          17.2020   43.9240    8.7520 N.am      1 GLN         0.0000
     11 C          18.0340   46.2300    8.3610 C.2       1 GLN         0.0000
     12 CG         17.9420   46.6170   11.3900 C.3       1 GLN         0.0000
     13 CB         17.9670   45.2550   10.6710 C.3       1 GLN         0.0000
     14 CD         19.0520   46.7940   12.4390 C.2       1 GLN         0.0000
     15 CA         17.2950   45.2740    9.2980 C.3       1 GLN         0.0000
     16 O          19.2500   49.0970    9.7460 O.2       1 TYR         0.0000
     17 OH         19.6290   53.9170    4.3400 O.3       1 TYR         0.0000
     18 N          17.5220   47.4490    8.2410 N.am      1 TYR         0.0000
     19 C          19.4230   48.9720    8.5300 C.2       1 TYR         0.0000
     20 CE1        18.6490   53.1800    6.4060 C.ar      1 TYR         0.0000
     21 CE2        18.9610   51.6650    4.5560 C.ar      1 TYR         0.0000
     22 CD1        18.0990   52.1580    7.1500 C.ar      1 TYR         0.0000
     23 CD2        18.4080   50.6540    5.3000 C.ar      1 TYR         0.0000
     24 CB         17.3520   49.7490    7.4060 C.3       1 TYR         0.0000
     25 CZ         19.0800   52.9210    5.1030 C.ar      1 TYR         0.0000
     26 CA         18.2670   48.5470    7.6270 C.3       1 TYR         0.0000
     27 CG         17.9690   50.8700    6.6090 C.ar      1 TYR         0.0000
     28 O          21.8340   51.9650    7.7550 O.2       1 TYR         0.0000
     29 OH         26.6580   50.8550   12.4810 O.3       1 TYR         0.0000
     30 N          20.6060   49.1840    7.9490 N.am      1 TYR         0.0000
     31 C          21.5310   51.3020    8.7450 C.2       1 TYR         0.0000
     32 CE1        25.0610   49.3250   11.5640 C.ar      1 TYR         0.0000
     33 CE2        25.6840   51.3110   10.3270 C.ar      1 TYR         0.0000
     34 CD1        24.1860   48.9660   10.5320 C.ar      1 TYR         0.0000
     35 CD2        24.7990   50.9340    9.2980 C.ar      1 TYR         0.0000
     36 CB         23.0850   49.3700    8.2990 C.3       1 TYR         0.0000
     37 CZ         25.8080   50.4910   11.4550 C.ar      1 TYR         0.0000
     38 CA         21.6730   49.7840    8.7340 C.3       1 TYR         0.0000
     39 CG         24.0620   49.7510    9.3780 C.ar      1 TYR         0.0000
     40 O          22.9990   53.8960   10.4160 O.2       1 TYR         0.0000
     41 OH         14.9780   50.6390   11.3420 O.3       1 TYR         0.0000
     42 N          21.0860   51.8340    9.8830 N.am      1 TYR         0.0000
     43 C          21.8980   54.2130    9.9410 C.2       1 TYR         0.0000
     44 CE1        16.2380   52.5730   10.7460 C.ar      1 TYR         0.0000
     45 CE2        17.2840   50.7760   11.9530 C.ar      1 TYR         0.0000
     46 CD1        17.4500   53.2690   10.7330 C.ar      1 TYR         0.0000
     47 CD2        18.4950   51.4860   11.9380 C.ar      1 TYR         0.0000
     48 CB         19.8990   53.4960   11.3020 C.3       1 TYR         0.0000
     49 CZ         16.1660   51.3280   11.3490 C.ar      1 TYR         0.0000
     50 CA         20.7140   53.2520   10.0130 C.3       1 TYR         0.0000
     51 CG         18.5880   52.7430   11.3330 C.ar      1 TYR         0.0000
     52 O          21.8000   56.8370   11.5430 O.2       1 ASN         0.0000
     53 OD1        23.6340   58.1830    6.3020 O.2       1 ASN         0.0000
     54 ND2        24.4600   58.5860    8.3490 N.am      1 ASN         0.0000
     55 N          21.6510   55.3830    9.3410 N.am      1 ASN         0.0000
     56 C          22.5940   57.1900   10.6590 C.2       1 ASN         0.0000
     57 CB         22.2820   57.4710    8.1740 C.3       1 ASN         0.0000
     58 CG         23.5290   58.1120    7.5300 C.2       1 ASN         0.0000
     59 CA         22.6190   56.4780    9.3060 C.3       1 ASN         0.0000
     60 O          22.5740   60.7870   10.8150 O.2       1 SER         0.0000
     61 OG         25.7140   58.0830   12.6470 O.3       1 SER         0.0000
     62 N          23.4540   58.1930   10.8090 N.am      1 SER         0.0000
     63 C          22.7500   60.2540   11.9130 C.2       1 SER         0.0000
     64 CB         25.0090   59.2780   12.3650 C.3       1 SER         0.0000
     65 CA         23.5450   58.9650   12.0360 C.3       1 SER         0.0000
     66 O          23.6220   63.0360   13.6140 O.co2     1 LEU        -0.5000
     67 OXT        22.0960   64.2930   12.8120 O.co2     1 LEU        -0.5000
     68 N          22.2760   60.7430   13.0560 N.am      1 LEU         0.0000
     69 CD1        18.5610   60.9820   15.5160 C.3       1 LEU         0.0000
     70 CD2        18.6810   60.8420   13.0250 C.3       1 LEU         0.0000
     71 CB         20.5650   61.9530   14.3240 C.3       1 LEU         0.0000
     72 C          22.4670   63.1740   13.1860 C.2       1 LEU         0.0000
     73 CG         19.4930   60.8510   14.3150 C.3       1 LEU         0.0000
     74 CA         21.5220   61.9790   13.1150 C.3       1 LEU         0.0000
     75 H          18.9375   42.3052    4.8601 H         1 SER         0.0000
     76 H          14.5772   41.8767    8.2519 H         1 SER         0.0000
     77 H          14.9449   40.7096    6.9368 H         1 SER         0.0000
     78 H          14.3940   42.3714    6.5348 H         1 SER         0.0000
     79 H          16.4611   42.7824    5.1412 H         1 SER         0.0000
     80 H          16.8164   41.0523    5.4688 H         1 SER         0.0000
     81 H          16.9616   41.5970    7.9196 H         1 SER         0.0000
     82 H          19.9672   45.9006   14.1129 H         1 GLN         0.0000
     83 H          18.5242   44.9501   13.3101 H         1 GLN         0.0000
     84 H          17.7467   43.0978    9.2322 H         1 GLN         0.0000
     85 H          18.0629   47.4235   10.6518 H         1 GLN         0.0000
     86 H          16.9813   46.7386   11.9119 H         1 GLN         0.0000
     87 H          19.0098   44.9385   10.5214 H         1 GLN         0.0000
     88 H          17.4412   44.5075   11.2832 H         1 GLN         0.0000
     89 H          16.2486   45.6019    9.3853 H         1 GLN         0.0000
     90 H          19.7358   54.9309    4.7531 H         1 TYR         0.0000
     91 H          16.5040   47.6199    8.6211 H         1 TYR         0.0000
     92 H          18.7464   54.1794    6.8301 H         1 TYR         0.0000
     93 H          19.3035   51.4743    3.5389 H         1 TYR         0.0000
     94 H          17.7619   52.3524    8.1682 H         1 TYR         0.0000
     95 H          18.3089   49.6613    4.8610 H         1 TYR         0.0000
     96 H          16.4514   49.4290    6.8614 H         1 TYR         0.0000
     97 H          17.0612   50.1722    8.3788 H         1 TYR         0.0000
     98 H          18.6396   48.1559    6.6688 H         1 TYR         0.0000
     99 H          26.7566   50.2118   13.3679 H         1 TYR         0.0000
    100 H          20.7820   48.9141    6.8972 H         1 TYR         0.0000
    101 H          25.1555   48.6936   12.4475 H         1 TYR         0.0000
    102 H          26.2650   52.2297   10.2461 H         1 TYR         0.0000
    103 H          23.5898   48.0586   10.6280 H         1 TYR         0.0000
    104 H          24.6877   51.5767    8.4247 H         1 TYR         0.0000
    105 H          23.1151   48.2821    8.1389 H         1 TYR         0.0000
    106 H          23.3464   49.8857    7.3632 H         1 TYR         0.0000
    107 H          21.5045   49.3657    9.7373 H         1 TYR         0.0000
    108 H          14.0906   51.0777   10.8623 H         1 TYR         0.0000
    109 H          21.0021   51.1617   10.7496 H         1 TYR         0.0000
    110 H          15.3524   53.0084   10.2832 H         1 TYR         0.0000
    111 H          17.2239   49.8002   12.4350 H         1 TYR         0.0000
    112 H          17.5037   54.2415   10.2437 H         1 TYR         0.0000
    113 H          19.3776   51.0499   12.4059 H         1 TYR         0.0000
    114 H          20.4868   53.1733   12.1740 H         1 TYR         0.0000
    115 H          19.6674   54.5676   11.3921 H         1 TYR         0.0000
    116 H          20.1024   53.4278    9.1158 H         1 TYR         0.0000
    117 H          25.3678   59.0524    7.9386 H         1 ASN         0.0000
    118 H          24.3237   58.5124    9.4380 H         1 ASN         0.0000
    119 H          20.6689   55.5015    8.8600 H         1 ASN         0.0000
    120 H          21.6456   58.2585    8.6039 H         1 ASN         0.0000
    121 H          21.7163   56.9197    7.4085 H         1 ASN         0.0000
    122 H          23.6039   56.0263    9.1164 H         1 ASN         0.0000
    123 H          26.7827   58.1226   12.9045 H         1 SER         0.0000
    124 H          24.1118   58.4302    9.9599 H         1 SER         0.0000
    125 H          25.0467   59.9415   13.2415 H         1 SER         0.0000
    126 H          25.4714   59.7820   11.5035 H         1 SER         0.0000
    127 H          23.1026   58.3297   12.8175 H         1 SER         0.0000
    128 H          22.4738   60.1749   13.9769 H         1 LEU         0.0000
    129 H          17.8063   60.1824   15.4833 H         1 LEU         0.0000
    130 H          18.0598   61.9607   15.4861 H         1 LEU         0.0000
    131 H          19.1450   60.8973   16.4443 H         1 LEU         0.0000
    132 H          17.9311   60.0385   13.0694 H         1 LEU         0.0000
    133 H          19.3521   60.6704   12.1705 H         1 LEU         0.0000
    134 H          18.1739   61.8106   12.9042 H         1 LEU         0.0000
    135 H          20.0773   62.9387   14.3472 H         1 LEU         0.0000
    136 H          21.2017   61.8379   15.2136 H         1 LEU         0.0000
    137 H          20.0215   59.8883   14.3779 H         1 LEU         0.0000
    138 H          20.9514   62.0305   12.1760 H         1 LEU         0.0000
@<TRIPOS>BOND
     1    1    4 2
     2    2    5 1
     3    2   75 1
     4    3    6 1
     5    3   76 1
     6    3   77 1
     7    3   78 1
     8    4    6 1
     9    4   10 am
    10    5    6 1
    11    5   79 1
    12    5   80 1
    13    6   81 1
    14    7   11 2
    15    8   14 2
    16    9   14 am
    17    9   82 1
    18    9   83 1
    19   10   15 1
    20   10   84 1
    21   11   15 1
    22   11   18 am
    23   12   13 1
    24   12   14 1
    25   12   85 1
    26   12   86 1
    27   13   15 1
    28   13   87 1
    29   13   88 1
    30   15   89 1
    31   16   19 2
    32   17   25 1
    33   17   90 1
    34   18   26 1
    35   18   91 1
    36   19   26 1
    37   19   30 am
    38   20   22 ar
    39   20   25 ar
    40   20   92 1
    41   21   23 ar
    42   21   25 ar
    43   21   93 1
    44   22   27 ar
    45   22   94 1
    46   23   27 ar
    47   23   95 1
    48   24   26 1
    49   24   27 1
    50   24   96 1
    51   24   97 1
    52   26   98 1
    53   28   31 2
    54   29   37 1
    55   29   99 1
    56   30   38 1
    57   30  100 1
    58   31   38 1
    59   31   42 am
    60   32   34 ar
    61   32   37 ar
    62   32  101 1
    63   33   35 ar
    64   33   37 ar
    65   33  102 1
    66   34   39 ar
    67   34  103 1
    68   35   39 ar
    69   35  104 1
    70   36   38 1
    71   36   39 1
    72   36  105 1
    73   36  106 1
    74   38  107 1
    75   40   43 2
    76   41   49 1
    77   41  108 1
    78   42   50 1
    79   42  109 1
    80   43   50 1
    81   43   55 am
    82   44   46 ar
    83   44   49 ar
    84   44  110 1
    85   45   47 ar
    86   45   49 ar
    87   45  111 1
    88   46   51 ar
    89   46  112 1
    90   47   51 ar
    91   47  113 1
    92   48   50 1
    93   48   51 1
    94   48  114 1
    95   48  115 1
    96   50  116 1
    97   52   56 2
    98   53   58 2
    99   54   58 am
   100   54  117 1
   101   54  118 1
   102   55   59 1
   103   55  119 1
   104   56   59 1
   105   56   62 am
   106   57   58 1
   107   57   59 1
   108   57  120 1
   109   57  121 1
   110   59  122 1
   111   60   63 2
   112   61   64 1
   113   61  123 1
   114   62   65 1
   115   62  124 1
   116   63   65 1
   117   63   68 am
   118   64   65 1
   119   64  125 1
   120   64  126 1
   121   65  127 1
   122   66   72 ar
   123   67   72 ar
   124   68   74 1
   125   68  128 1
   126   69   73 1
   127   69  129 1
   128   69  130 1
   129   69  131 1
   130   70   73 1
   131   70  132 1
   132   70  133 1
   133   70  134 1
   134   71   73 1
   135   71   74 1
   136   71  135 1
   137   71  136 1
   138   72   74 1
   139   73  137 1
   140   74  138 1

