2clv_ligand
Version: PDBbind v2024

138140  0  0  1  0            999 V2000
   15.8460   44.5790    7.0680 O   0  0  0  0  0  0
   18.3710   42.3670    5.8010 O   0  0  0  0  0  0
   14.9870   41.7670    7.2370 N   0  3  0  0  0  0
   16.4620   43.6850    7.6760 C   0  0  0  0  0  0
   16.9830   42.0840    5.8120 C   0  0  0  0  0  0
   16.3960   42.2300    7.2200 C   0  0  2  0  0  0
   18.9375   42.3052    4.8601 H   0  0  0  0  0  0
   14.5772   41.8767    8.2519 H   0  0  0  0  0  0
   14.9449   40.7096    6.9368 H   0  0  0  0  0  0
   16.4611   42.7824    5.1412 H   0  0  0  0  0  0
   16.8164   41.0523    5.4688 H   0  0  0  0  0  0
   16.9616   41.5970    7.9196 H   0  0  0  0  0  0
   19.0560   45.8730    7.7670 O   0  0  0  0  0  0
   19.7680   47.8030   12.4330 O   0  0  0  0  0  0
   19.1890   45.8260   13.3390 N   0  0  0  0  0  0
   17.2020   43.9240    8.7520 N   0  0  0  0  0  0
   18.0340   46.2300    8.3610 C   0  0  0  0  0  0
   17.9420   46.6170   11.3900 C   0  0  0  0  0  0
   17.9670   45.2550   10.6710 C   0  0  0  0  0  0
   19.0520   46.7940   12.4390 C   0  0  0  0  0  0
   17.2950   45.2740    9.2980 C   0  0  2  0  0  0
   19.9672   45.9006   14.1129 H   0  0  0  0  0  0
   18.5242   44.9501   13.3101 H   0  0  0  0  0  0
   18.0629   47.4235   10.6518 H   0  0  0  0  0  0
   16.9813   46.7386   11.9119 H   0  0  0  0  0  0
   19.0098   44.9385   10.5214 H   0  0  0  0  0  0
   17.4412   44.5075   11.2832 H   0  0  0  0  0  0
   16.2486   45.6019    9.3853 H   0  0  0  0  0  0
   17.7467   43.0978    9.2322 H   0  0  0  0  0  0
   19.2500   49.0970    9.7460 O   0  0  0  0  0  0
   19.6290   53.9170    4.3400 O   0  0  0  0  0  0
   17.5220   47.4490    8.2410 N   0  0  0  0  0  0
   19.4230   48.9720    8.5300 C   0  0  0  0  0  0
   18.6490   53.1800    6.4060 C   0  0  0  0  0  0
   18.9610   51.6650    4.5560 C   0  0  0  0  0  0
   18.0990   52.1580    7.1500 C   0  0  0  0  0  0
   18.4080   50.6540    5.3000 C   0  0  0  0  0  0
   17.3520   49.7490    7.4060 C   0  0  0  0  0  0
   19.0800   52.9210    5.1030 C   0  0  0  0  0  0
   18.2670   48.5470    7.6270 C   0  0  2  0  0  0
   17.9690   50.8700    6.6090 C   0  0  0  0  0  0
   19.7358   54.9309    4.7531 H   0  0  0  0  0  0
   18.7384   54.0969    6.7951 H   0  0  0  0  0  0
   19.2752   51.4900    3.6229 H   0  0  0  0  0  0
   17.7898   52.3364    8.0841 H   0  0  0  0  0  0
   18.3171   49.7432    4.8972 H   0  0  0  0  0  0
   16.4514   49.4290    6.8614 H   0  0  0  0  0  0
   17.0612   50.1722    8.3788 H   0  0  0  0  0  0
   18.6396   48.1559    6.6688 H   0  0  0  0  0  0
   16.5040   47.6199    8.6211 H   0  0  0  0  0  0
   21.8340   51.9650    7.7550 O   0  0  0  0  0  0
   26.6580   50.8550   12.4810 O   0  0  0  0  0  0
   20.6060   49.1840    7.9490 N   0  0  0  0  0  0
   21.5310   51.3020    8.7450 C   0  0  0  0  0  0
   25.0610   49.3250   11.5640 C   0  0  0  0  0  0
   25.6840   51.3110   10.3270 C   0  0  0  0  0  0
   24.1860   48.9660   10.5320 C   0  0  0  0  0  0
   24.7990   50.9340    9.2980 C   0  0  0  0  0  0
   23.0850   49.3700    8.2990 C   0  0  0  0  0  0
   25.8080   50.4910   11.4550 C   0  0  0  0  0  0
   21.6730   49.7840    8.7340 C   0  0  2  0  0  0
   24.0620   49.7510    9.3780 C   0  0  0  0  0  0
   26.7566   50.2118   13.3679 H   0  0  0  0  0  0
   25.1477   48.7457   12.3745 H   0  0  0  0  0  0
   26.2171   52.1538   10.2527 H   0  0  0  0  0  0
   23.6390   48.1335   10.6200 H   0  0  0  0  0  0
   24.6969   51.5236    8.4968 H   0  0  0  0  0  0
   23.1151   48.2821    8.1389 H   0  0  0  0  0  0
   23.3464   49.8857    7.3632 H   0  0  0  0  0  0
   21.5045   49.3657    9.7373 H   0  0  0  0  0  0
   20.7820   48.9141    6.8972 H   0  0  0  0  0  0
   22.9990   53.8960   10.4160 O   0  0  0  0  0  0
   14.9780   50.6390   11.3420 O   0  0  0  0  0  0
   21.0860   51.8340    9.8830 N   0  0  0  0  0  0
   21.8980   54.2130    9.9410 C   0  0  0  0  0  0
   16.2380   52.5730   10.7460 C   0  0  0  0  0  0
   17.2840   50.7760   11.9530 C   0  0  0  0  0  0
   17.4500   53.2690   10.7330 C   0  0  0  0  0  0
   18.4950   51.4860   11.9380 C   0  0  0  0  0  0
   19.8990   53.4960   11.3020 C   0  0  0  0  0  0
   16.1660   51.3280   11.3490 C   0  0  0  0  0  0
   20.7140   53.2520   10.0130 C   0  0  2  0  0  0
   18.5880   52.7430   11.3330 C   0  0  0  0  0  0
   14.0906   51.0777   10.8623 H   0  0  0  0  0  0
   15.4255   52.9725   10.3214 H   0  0  0  0  0  0
   17.2289   49.8808   12.3952 H   0  0  0  0  0  0
   17.4992   54.1612   10.2841 H   0  0  0  0  0  0
   19.3047   51.0859   12.3673 H   0  0  0  0  0  0
   20.4868   53.1733   12.1740 H   0  0  0  0  0  0
   19.6674   54.5676   11.3921 H   0  0  0  0  0  0
   20.1024   53.4278    9.1158 H   0  0  0  0  0  0
   21.0021   51.1617   10.7496 H   0  0  0  0  0  0
   21.8000   56.8370   11.5430 O   0  0  0  0  0  0
   23.6340   58.1830    6.3020 O   0  0  0  0  0  0
   24.4600   58.5860    8.3490 N   0  0  0  0  0  0
   21.6510   55.3830    9.3410 N   0  0  0  0  0  0
   22.5940   57.1900   10.6590 C   0  0  0  0  0  0
   22.2820   57.4710    8.1740 C   0  0  0  0  0  0
   23.5290   58.1120    7.5300 C   0  0  0  0  0  0
   22.6190   56.4780    9.3060 C   0  0  2  0  0  0
   25.3678   59.0524    7.9386 H   0  0  0  0  0  0
   24.3237   58.5124    9.4380 H   0  0  0  0  0  0
   21.6456   58.2585    8.6039 H   0  0  0  0  0  0
   21.7163   56.9197    7.4085 H   0  0  0  0  0  0
   23.6039   56.0263    9.1164 H   0  0  0  0  0  0
   20.6689   55.5015    8.8600 H   0  0  0  0  0  0
   22.5740   60.7870   10.8150 O   0  0  0  0  0  0
   25.7140   58.0830   12.6470 O   0  0  0  0  0  0
   23.4540   58.1930   10.8090 N   0  0  0  0  0  0
   22.7500   60.2540   11.9130 C   0  0  0  0  0  0
   25.0090   59.2780   12.3650 C   0  0  0  0  0  0
   23.5450   58.9650   12.0360 C   0  0  2  0  0  0
   26.7827   58.1226   12.9045 H   0  0  0  0  0  0
   25.0467   59.9415   13.2415 H   0  0  0  0  0  0
   25.4714   59.7820   11.5035 H   0  0  0  0  0  0
   23.1026   58.3297   12.8175 H   0  0  0  0  0  0
   24.1118   58.4302    9.9599 H   0  0  0  0  0  0
   23.6220   63.0360   13.6140 O   0  0  0  0  0  0
   22.0960   64.2930   12.8120 O   0  5  0  0  0  0
   22.2760   60.7430   13.0560 N   0  0  0  0  0  0
   18.5610   60.9820   15.5160 C   0  0  0  0  0  0
   18.6810   60.8420   13.0250 C   0  0  0  0  0  0
   20.5650   61.9530   14.3240 C   0  0  0  0  0  0
   22.4670   63.1740   13.1860 C   0  0  0  0  0  0
   19.4930   60.8510   14.3150 C   0  0  0  0  0  0
   21.5220   61.9790   13.1150 C   0  0  1  0  0  0
   17.8063   60.1824   15.4833 H   0  0  0  0  0  0
   18.0598   61.9607   15.4861 H   0  0  0  0  0  0
   19.1450   60.8973   16.4443 H   0  0  0  0  0  0
   17.9311   60.0385   13.0694 H   0  0  0  0  0  0
   19.3521   60.6704   12.1705 H   0  0  0  0  0  0
   18.1739   61.8106   12.9042 H   0  0  0  0  0  0
   20.0773   62.9387   14.3472 H   0  0  0  0  0  0
   21.2017   61.8379   15.2136 H   0  0  0  0  0  0
   20.0215   59.8883   14.3779 H   0  0  0  0  0  0
   20.9514   62.0305   12.1760 H   0  0  0  0  0  0
   22.4738   60.1749   13.9769 H   0  0  0  0  0  0
   14.3940   42.3714    6.5348 H   0  0  0  0  0  0
  1  4  2  0  0  0
  2  5  1  0  0  0
  2  7  1  0  0  0
  3  6  1  0  0  0
  3  8  1  0  0  0
  3  9  1  0  0  0
  3138  1  0  0  0
  4  6  1  0  0  0
  4 16  1  0  0  0
  5  6  1  0  0  0
  5 10  1  0  0  0
  5 11  1  0  0  0
  6 12  1  0  0  0
 13 17  2  0  0  0
 14 20  2  0  0  0
 15 20  1  0  0  0
 15 22  1  0  0  0
 15 23  1  0  0  0
 16 21  1  0  0  0
 16 29  1  0  0  0
 17 21  1  0  0  0
 17 32  1  0  0  0
 18 19  1  0  0  0
 18 20  1  0  0  0
 18 24  1  0  0  0
 18 25  1  0  0  0
 19 21  1  0  0  0
 19 27  1  0  0  0
 19 26  1  0  0  0
 21 28  1  0  0  0
 30 33  2  0  0  0
 31 39  1  0  0  0
 31 42  1  0  0  0
 32 40  1  0  0  0
 32 50  1  0  0  0
 33 40  1  0  0  0
 33 53  1  0  0  0
 34 36  1  0  0  0
 34 39  2  0  0  0
 34 43  1  0  0  0
 35 37  2  0  0  0
 35 39  1  0  0  0
 35 44  1  0  0  0
 36 41  2  0  0  0
 36 45  1  0  0  0
 37 41  1  0  0  0
 37 46  1  0  0  0
 38 40  1  0  0  0
 38 41  1  0  0  0
 38 48  1  0  0  0
 38 47  1  0  0  0
 40 49  1  0  0  0
 51 54  2  0  0  0
 52 60  1  0  0  0
 52 63  1  0  0  0
 53 61  1  0  0  0
 53 71  1  0  0  0
 54 61  1  0  0  0
 54 74  1  0  0  0
 55 57  1  0  0  0
 55 60  2  0  0  0
 55 64  1  0  0  0
 56 58  2  0  0  0
 56 60  1  0  0  0
 56 65  1  0  0  0
 57 62  2  0  0  0
 57 66  1  0  0  0
 58 62  1  0  0  0
 58 67  1  0  0  0
 59 61  1  0  0  0
 59 62  1  0  0  0
 59 69  1  0  0  0
 59 68  1  0  0  0
 61 70  1  0  0  0
 72 75  2  0  0  0
 73 81  1  0  0  0
 73 84  1  0  0  0
 74 82  1  0  0  0
 74 92  1  0  0  0
 75 82  1  0  0  0
 75 96  1  0  0  0
 76 78  1  0  0  0
 76 81  2  0  0  0
 76 85  1  0  0  0
 77 79  2  0  0  0
 77 81  1  0  0  0
 77 86  1  0  0  0
 78 83  2  0  0  0
 78 87  1  0  0  0
 79 83  1  0  0  0
 79 88  1  0  0  0
 80 82  1  0  0  0
 80 83  1  0  0  0
 80 90  1  0  0  0
 80 89  1  0  0  0
 82 91  1  0  0  0
 93 97  2  0  0  0
 94 99  2  0  0  0
 95 99  1  0  0  0
 95101  1  0  0  0
 95102  1  0  0  0
 96100  1  0  0  0
 96106  1  0  0  0
 97100  1  0  0  0
 97109  1  0  0  0
 98 99  1  0  0  0
 98100  1  0  0  0
 98104  1  0  0  0
 98103  1  0  0  0
100105  1  0  0  0
107110  2  0  0  0
108111  1  0  0  0
108113  1  0  0  0
109112  1  0  0  0
109117  1  0  0  0
110112  1  0  0  0
110120  1  0  0  0
111112  1  0  0  0
111115  1  0  0  0
111114  1  0  0  0
112116  1  0  0  0
118124  2  0  0  0
119124  1  0  0  0
120126  1  0  0  0
120137  1  0  0  0
121125  1  0  0  0
121127  1  0  0  0
121128  1  0  0  0
121129  1  0  0  0
122125  1  0  0  0
122130  1  0  0  0
122131  1  0  0  0
122132  1  0  0  0
123125  1  0  0  0
123126  1  0  0  0
123134  1  0  0  0
123133  1  0  0  0
124126  1  0  0  0
125135  1  0  0  0
126136  1  0  0  0
M  END
$$$$