1a2c_ligand
Version: PDBbind v2024

 90 92  0  0  1  0            999 V2000
   16.1150  -18.1270   21.9550 O   0  0  0  0  0  0
   15.4060  -20.9170   28.1120 O   0  0  0  0  0  0
   13.0940  -17.6970   23.8350 O   0  0  0  0  0  0
   15.2360  -17.7810   22.7540 C   0  0  0  0  0  0
   15.9950  -20.5080   25.8180 C   0  0  0  0  0  0
   13.7420  -20.8120   26.4210 C   0  0  0  0  0  0
   15.6020  -20.3590   24.5100 C   0  0  0  0  0  0
   13.3540  -20.7060   25.1210 C   0  0  0  0  0  0
   13.7910  -19.8430   22.8730 C   0  0  0  0  0  0
   15.0680  -20.7230   26.7550 C   0  0  0  0  0  0
   13.8180  -18.3070   22.7360 C   0  0  1  0  0  0
   14.2690  -20.3830   24.1940 C   0  0  0  0  0  0
   16.4569  -20.8558   28.4312 H   0  0  0  0  0  0
   13.0107  -16.6020   23.8983 H   0  0  0  0  0  0
   16.9626  -20.4561   26.0652 H   0  0  0  0  0  0
   13.0569  -20.9554   27.1352 H   0  0  0  0  0  0
   16.2861  -20.2335   23.7915 H   0  0  0  0  0  0
   12.4019  -20.8663   24.8605 H   0  0  0  0  0  0
   12.7601  -20.2045   22.7443 H   0  0  0  0  0  0
   14.4356  -20.2912   22.1026 H   0  0  0  0  0  0
   13.3208  -18.0088   21.8012 H   0  0  0  0  0  0
   15.4510  -14.2040   23.1150 O   0  0  0  0  0  0
   15.4220  -16.8730   23.7010 N   0  0  0  0  0  0
   18.5880  -17.0490   26.5540 C   0  0  0  0  0  0
   16.2430  -17.5850   26.1220 C   0  0  0  0  0  0
   16.4450  -14.9470   23.0150 C   0  0  0  0  0  0
   17.7670  -16.9500   24.2180 C   0  0  0  0  0  0
   16.5660  -16.0380   24.0450 C   0  0  2  0  0  0
   17.6580  -17.6860   25.5470 C   0  0  0  0  0  0
   18.5090  -17.5808   27.5137 H   0  0  0  0  0  0
   18.3088  -15.9944   26.6951 H   0  0  0  0  0  0
   19.6229  -17.1083   26.1860 H   0  0  0  0  0  0
   16.1968  -18.1250   27.0792 H   0  0  0  0  0  0
   15.5273  -18.0300   25.4150 H   0  0  0  0  0  0
   15.9881  -16.5274   26.2849 H   0  0  0  0  0  0
   17.7945  -17.6800   23.3956 H   0  0  0  0  0  0
   18.6884  -16.3492   24.2059 H   0  0  0  0  0  0
   16.6174  -15.5113   25.0093 H   0  0  0  0  0  0
   17.9262  -18.7374   25.3665 H   0  0  0  0  0  0
   14.4933  -16.8017   24.2862 H   0  0  0  0  0  0
   15.5220  -13.9470   19.7680 O   0  0  0  0  0  0
   20.4090  -17.4610   20.1070 O   0  0  0  0  0  0
   17.2620  -14.7610   21.9760 N   0  0  0  0  0  0
   16.0070  -13.1080   20.5290 C   0  0  0  0  0  0
   20.6070  -15.1310   19.2150 C   0  0  0  0  0  0
   20.8410  -14.3950   20.6040 C   0  0  0  0  0  0
   18.3280  -16.0470   20.1460 C   0  0  0  0  0  0
   18.5360  -13.2750   20.6590 C   0  0  0  0  0  0
   19.7300  -16.3680   19.4980 C   0  0  2  0  0  0
   17.1510  -13.5110   21.3110 C   0  0  2  0  0  0
   18.5180  -15.3340   21.5870 C   0  0  1  0  0  0
   19.5390  -14.1750   21.3630 C   0  0  1  0  0  0
   21.3961  -17.7718   19.7342 H   0  0  0  0  0  0
   20.0994  -14.4473   18.5187 H   0  0  0  0  0  0
   21.5766  -15.4321   18.7917 H   0  0  0  0  0  0
   21.5059  -15.0039   21.2342 H   0  0  0  0  0  0
   21.3032  -13.4129   20.4253 H   0  0  0  0  0  0
   17.7646  -15.3717   19.4852 H   0  0  0  0  0  0
   17.7642  -16.9817   20.2819 H   0  0  0  0  0  0
   18.4846  -13.5239   19.5888 H   0  0  0  0  0  0
   18.8215  -12.2192   20.7766 H   0  0  0  0  0  0
   19.5746  -16.8372   18.5153 H   0  0  0  0  0  0
   16.7799  -12.8668   22.1218 H   0  0  0  0  0  0
   18.7951  -15.9983   22.4188 H   0  0  0  0  0  0
   20.0643  -13.8265   22.2644 H   0  0  0  0  0  0
   15.7610  -11.0520   17.9370 O   0  0  0  0  0  0
   13.5860   -9.5950   18.5050 O   0  5  0  0  0  0
   10.3670  -10.5480   25.0080 N   0  3  0  0  0  0
   10.1570  -12.8340   25.4680 N   0  0  0  0  0  0
   15.4610  -11.8910   20.5710 N   0  0  0  0  0  0
   11.4980  -12.1600   23.6800 N   0  0  0  0  0  0
   12.2180  -11.1000   22.9290 C   0  0  0  0  0  0
   13.1740  -11.7830   21.9080 C   0  0  0  0  0  0
   13.2090  -10.8090   20.7390 C   0  0  0  0  0  0
   14.5510  -10.6980   18.7130 C   0  0  0  0  0  0
   10.6740  -11.8330   24.7200 C   0  0  0  0  0  0
   14.2540  -11.6070   19.9070 C   0  0  1  0  0  0
    9.7005  -10.3177   25.8522 H   0  0  0  0  0  0
   10.7838   -9.7330   24.3981 H   0  0  0  0  0  0
    9.4905  -12.6022   26.3118 H   0  0  0  0  0  0
   10.4030  -13.8800   25.2326 H   0  0  0  0  0  0
   11.4906  -10.4681   22.3984 H   0  0  0  0  0  0
   12.7971  -10.4821   23.6311 H   0  0  0  0  0  0
   14.1643  -11.9188   22.3672 H   0  0  0  0  0  0
   12.7650  -12.7632   21.6217 H   0  0  0  0  0  0
   12.2043  -10.7289   20.2983 H   0  0  0  0  0  0
   13.5330   -9.8200   21.0953 H   0  0  0  0  0  0
   13.9230  -12.6332   19.6892 H   0  0  0  0  0  0
   15.9747  -11.1019   21.1398 H   0  0  0  0  0  0
   11.6263  -13.2161   23.4002 H   0  0  0  0  0  0
  1  4  2  0  0  0
  2 10  1  0  0  0
  2 13  1  0  0  0
  3 11  1  0  0  0
  3 14  1  0  0  0
  4 11  1  0  0  0
  4 23  1  0  0  0
  5  7  1  0  0  0
  5 10  2  0  0  0
  5 15  1  0  0  0
  6  8  2  0  0  0
  6 10  1  0  0  0
  6 16  1  0  0  0
  7 12  2  0  0  0
  7 17  1  0  0  0
  8 12  1  0  0  0
  8 18  1  0  0  0
  9 11  1  0  0  0
  9 12  1  0  0  0
  9 19  1  0  0  0
  9 20  1  0  0  0
 11 21  1  0  0  0
 22 26  2  0  0  0
 23 28  1  0  0  0
 23 40  1  0  0  0
 24 29  1  0  0  0
 24 30  1  0  0  0
 24 31  1  0  0  0
 24 32  1  0  0  0
 25 29  1  0  0  0
 25 33  1  0  0  0
 25 34  1  0  0  0
 25 35  1  0  0  0
 26 28  1  0  0  0
 26 43  1  0  0  0
 27 28  1  0  0  0
 27 29  1  0  0  0
 27 37  1  0  0  0
 27 36  1  0  0  0
 28 38  1  0  0  0
 29 39  1  0  0  0
 41 44  2  0  0  0
 42 49  1  0  0  0
 42 53  1  0  0  0
 43 50  1  0  0  0
 43 51  1  0  0  0
 44 50  1  0  0  0
 44 70  1  0  0  0
 45 46  1  0  0  0
 45 49  1  0  0  0
 45 54  1  0  0  0
 45 55  1  0  0  0
 46 52  1  0  0  0
 46 56  1  0  0  0
 46 57  1  0  0  0
 47 49  1  0  0  0
 47 51  1  0  0  0
 47 58  1  0  0  0
 47 59  1  0  0  0
 48 50  1  0  0  0
 48 52  1  0  0  0
 48 60  1  0  0  0
 48 61  1  0  0  0
 49 62  1  0  0  0
 50 63  1  0  0  0
 51 52  1  0  0  0
 51 64  1  0  0  0
 52 65  1  0  0  0
 66 75  2  0  0  0
 67 75  1  0  0  0
 68 76  2  0  0  0
 68 78  1  0  0  0
 68 79  1  0  0  0
 69 76  1  0  0  0
 69 80  1  0  0  0
 69 81  1  0  0  0
 70 77  1  0  0  0
 70 89  1  0  0  0
 71 72  1  0  0  0
 71 76  1  0  0  0
 71 90  1  0  0  0
 72 73  1  0  0  0
 72 82  1  0  0  0
 72 83  1  0  0  0
 73 74  1  0  0  0
 73 84  1  0  0  0
 73 85  1  0  0  0
 74 77  1  0  0  0
 74 87  1  0  0  0
 74 86  1  0  0  0
 75 77  1  0  0  0
 77 88  1  0  0  0
M  END
$$$$