#    Name:    1a2c_ligand
#    Version:    PDBbind v2024

@<TRIPOS>MOLECULE
1a2c_ligand
   90    92     1     0     0
SMALL
USER_CHARGES

@<TRIPOS>ATOM
      1 O2         16.1150  -18.1270   21.9550 O.2       1 34H         0.0000
      2 O3         15.4060  -20.9170   28.1120 O.3       1 34H         0.0000
      3 O4         13.0940  -17.6970   23.8350 O.3       1 34H         0.0000
      4 C1         15.2360  -17.7810   22.7540 C.2       1 34H         0.0000
      5 C8         15.9950  -20.5080   25.8180 C.ar      1 34H         0.0000
      6 C6         13.7420  -20.8120   26.4210 C.ar      1 34H         0.0000
      7 C9         15.6020  -20.3590   24.5100 C.ar      1 34H         0.0000
      8 C5         13.3540  -20.7060   25.1210 C.ar      1 34H         0.0000
      9 C3         13.7910  -19.8430   22.8730 C.3       1 34H         0.0000
     10 C7         15.0680  -20.7230   26.7550 C.ar      1 34H         0.0000
     11 C2         13.8180  -18.3070   22.7360 C.3       1 34H         0.0000
     12 C4         14.2690  -20.3830   24.1940 C.ar      1 34H         0.0000
     13 O          15.4510  -14.2040   23.1150 O.2       1 LEU         0.0000
     14 N          15.4220  -16.8730   23.7010 N.am      1 LEU         0.0000
     15 CD1        18.5880  -17.0490   26.5540 C.3       1 LEU         0.0000
     16 CD2        16.2430  -17.5850   26.1220 C.3       1 LEU         0.0000
     17 C          16.4450  -14.9470   23.0150 C.2       1 LEU         0.0000
     18 CB         17.7670  -16.9500   24.2180 C.3       1 LEU         0.0000
     19 CA         16.5660  -16.0380   24.0450 C.3       1 LEU         0.0000
     20 CG         17.6580  -17.6860   25.5470 C.3       1 LEU         0.0000
     21 O          15.5220  -13.9470   19.7680 O.2       1 PRJ         0.0000
     22 O2         20.4090  -17.4610   20.1070 O.3       1 PRJ         0.0000
     23 N          17.2620  -14.7610   21.9760 N.am      1 PRJ         0.0000
     24 C          16.0070  -13.1080   20.5290 C.2       1 PRJ         0.0000
     25 C12        20.6070  -15.1310   19.2150 C.3       1 PRJ         0.0000
     26 C11        20.8410  -14.3950   20.6040 C.3       1 PRJ         0.0000
     27 C14        18.3280  -16.0470   20.1460 C.3       1 PRJ         0.0000
     28 CB         18.5360  -13.2750   20.6590 C.3       1 PRJ         0.0000
     29 C13        19.7300  -16.3680   19.4980 C.3       1 PRJ         0.0000
     30 CA         17.1510  -13.5110   21.3110 C.3       1 PRJ         0.0000
     31 CD         18.5180  -15.3340   21.5870 C.3       1 PRJ         0.0000
     32 CG         19.5390  -14.1750   21.3630 C.3       1 PRJ         0.0000
     33 O          15.7610  -11.0520   17.9370 O.co2     1 OAR        -0.5000
     34 OXT        13.5860   -9.5950   18.5050 O.co2     1 OAR        -0.5000
     35 NH1        10.3670  -10.5480   25.0080 N.pl3     1 OAR         0.0000
     36 NH2        10.1570  -12.8340   25.4680 N.pl3     1 OAR         0.0000
     37 N1         15.4610  -11.8910   20.5710 N.am      1 OAR         0.0000
     38 NE         11.4980  -12.1600   23.6800 N.pl3     1 OAR         0.0000
     39 CD         12.2180  -11.1000   22.9290 C.3       1 OAR         0.0000
     40 CG         13.1740  -11.7830   21.9080 C.3       1 OAR         0.0000
     41 CB         13.2090  -10.8090   20.7390 C.3       1 OAR         0.0000
     42 C          14.5510  -10.6980   18.7130 C.2       1 OAR         0.0000
     43 CZ         10.6740  -11.8330   24.7200 C.cat     1 OAR         1.0000
     44 CA         14.2540  -11.6070   19.9070 C.3       1 OAR         0.0000
     45 H          16.4569  -20.8558   28.4312 H         1 34H         0.0000
     46 H          13.0107  -16.6020   23.8983 H         1 34H         0.0000
     47 H          17.0497  -20.4515   26.0875 H         1 34H         0.0000
     48 H          12.9953  -20.9683   27.1995 H         1 34H         0.0000
     49 H          16.3476  -20.2222   23.7268 H         1 34H         0.0000
     50 H          12.3162  -20.8807   24.8371 H         1 34H         0.0000
     51 H          12.7601  -20.2045   22.7443 H         1 34H         0.0000
     52 H          14.4356  -20.2912   22.1026 H         1 34H         0.0000
     53 H          13.3208  -18.0088   21.8012 H         1 34H         0.0000
     54 H          14.4933  -16.8017   24.2862 H         1 LEU         0.0000
     55 H          18.5090  -17.5808   27.5137 H         1 LEU         0.0000
     56 H          18.3088  -15.9944   26.6951 H         1 LEU         0.0000
     57 H          19.6229  -17.1083   26.1860 H         1 LEU         0.0000
     58 H          16.1968  -18.1250   27.0792 H         1 LEU         0.0000
     59 H          15.5273  -18.0300   25.4150 H         1 LEU         0.0000
     60 H          15.9881  -16.5274   26.2849 H         1 LEU         0.0000
     61 H          17.7945  -17.6800   23.3956 H         1 LEU         0.0000
     62 H          18.6884  -16.3492   24.2059 H         1 LEU         0.0000
     63 H          16.6174  -15.5113   25.0093 H         1 LEU         0.0000
     64 H          17.9262  -18.7374   25.3665 H         1 LEU         0.0000
     65 H          21.3961  -17.7718   19.7342 H         1 PRJ         0.0000
     66 H          20.0994  -14.4473   18.5187 H         1 PRJ         0.0000
     67 H          21.5766  -15.4321   18.7917 H         1 PRJ         0.0000
     68 H          21.5059  -15.0039   21.2342 H         1 PRJ         0.0000
     69 H          21.3032  -13.4129   20.4253 H         1 PRJ         0.0000
     70 H          17.7646  -15.3717   19.4852 H         1 PRJ         0.0000
     71 H          17.7642  -16.9817   20.2819 H         1 PRJ         0.0000
     72 H          18.4846  -13.5239   19.5888 H         1 PRJ         0.0000
     73 H          18.8215  -12.2192   20.7766 H         1 PRJ         0.0000
     74 H          19.5746  -16.8372   18.5153 H         1 PRJ         0.0000
     75 H          16.7799  -12.8668   22.1218 H         1 PRJ         0.0000
     76 H          18.7951  -15.9983   22.4188 H         1 PRJ         0.0000
     77 H          20.0643  -13.8265   22.2644 H         1 PRJ         0.0000
     78 H           9.7005  -10.3177   25.8522 H         1 OAR         0.0000
     79 H          10.7838   -9.7330   24.3981 H         1 OAR         0.0000
     80 H           9.4905  -12.6022   26.3118 H         1 OAR         0.0000
     81 H          10.4030  -13.8800   25.2326 H         1 OAR         0.0000
     82 H          15.9747  -11.1019   21.1398 H         1 OAR         0.0000
     83 H          11.6263  -13.2161   23.4002 H         1 OAR         0.0000
     84 H          11.4906  -10.4681   22.3984 H         1 OAR         0.0000
     85 H          12.7971  -10.4821   23.6311 H         1 OAR         0.0000
     86 H          14.1643  -11.9188   22.3672 H         1 OAR         0.0000
     87 H          12.7650  -12.7632   21.6217 H         1 OAR         0.0000
     88 H          12.2043  -10.7289   20.2983 H         1 OAR         0.0000
     89 H          13.5330   -9.8200   21.0953 H         1 OAR         0.0000
     90 H          13.9230  -12.6332   19.6892 H         1 OAR         0.0000
@<TRIPOS>BOND
     1    1    4 2
     2    2   10 1
     3    2   45 1
     4    3   11 1
     5    3   46 1
     6    4   11 1
     7    4   14 am
     8    5    7 ar
     9    5   10 ar
    10    5   47 1
    11    6    8 ar
    12    6   10 ar
    13    6   48 1
    14    7   12 ar
    15    7   49 1
    16    8   12 ar
    17    8   50 1
    18    9   11 1
    19    9   12 1
    20    9   51 1
    21    9   52 1
    22   11   53 1
    23   13   17 2
    24   14   19 1
    25   14   54 1
    26   15   20 1
    27   15   55 1
    28   15   56 1
    29   15   57 1
    30   16   20 1
    31   16   58 1
    32   16   59 1
    33   16   60 1
    34   17   19 1
    35   17   23 am
    36   18   19 1
    37   18   20 1
    38   18   61 1
    39   18   62 1
    40   19   63 1
    41   20   64 1
    42   21   24 2
    43   22   29 1
    44   22   65 1
    45   23   30 1
    46   23   31 1
    47   24   30 1
    48   24   37 am
    49   25   26 1
    50   25   29 1
    51   25   66 1
    52   25   67 1
    53   26   32 1
    54   26   68 1
    55   26   69 1
    56   27   29 1
    57   27   31 1
    58   27   70 1
    59   27   71 1
    60   28   30 1
    61   28   32 1
    62   28   72 1
    63   28   73 1
    64   29   74 1
    65   30   75 1
    66   31   32 1
    67   31   76 1
    68   32   77 1
    69   33   42 ar
    70   34   42 ar
    71   35   43 ar
    72   35   78 1
    73   35   79 1
    74   36   43 ar
    75   36   80 1
    76   36   81 1
    77   37   44 1
    78   37   82 1
    79   38   39 1
    80   38   43 ar
    81   38   83 1
    82   39   40 1
    83   39   84 1
    84   39   85 1
    85   40   41 1
    86   40   86 1
    87   40   87 1
    88   41   44 1
    89   41   88 1
    90   41   89 1
    91   42   44 1
    92   44   90 1

