2clm_ligand
Version: PDBbind v2024

 30 30  0  0  1  0            999 V2000
   47.8510   29.3390   10.1260 P   0  0  0  0  0  0
   50.9710   21.2260   13.7530 F   0  0  0  0  0  0
   52.9510   20.6170   14.2800 F   0  0  0  0  0  0
   52.6500   22.3460   13.0490 F   0  0  0  0  0  0
   46.7620   30.3580    9.8740 O   0  0  0  0  0  0
   47.3100   28.2380   11.0120 O   0  5  0  0  0  0
   48.5210   29.0100    8.8110 O   0  5  0  0  0  0
   47.7400   27.2130   14.9930 O   0  0  0  0  0  0
   49.0580   30.0500   10.9720 O   0  0  0  0  0  0
   52.1270   22.4740   15.2610 O   0  0  0  0  0  0
   49.3210   27.6400   13.5000 N   0  0  0  0  0  0
   49.8190   29.1250   11.6330 C   0  0  0  0  0  0
   49.3840   29.0460   13.0870 C   0  0  0  0  0  0
   49.9030   23.5790   15.3870 C   0  0  0  0  0  0
   51.9880   24.8250   14.7910 C   0  0  0  0  0  0
   49.1390   24.7910   15.2600 C   0  0  0  0  0  0
   51.2210   26.0450   14.6630 C   0  0  0  0  0  0
   48.9480   27.3140   14.7720 C   0  0  0  0  0  0
   51.3270   23.5870   15.1550 C   0  0  0  0  0  0
   49.7880   26.0320   14.8960 C   0  0  0  0  0  0
   52.1730   21.6710   14.0860 C   0  0  0  0  0  0
   49.5747   26.8445   12.7839 H   0  0  0  0  0  0
   49.6909   28.1398   11.1607 H   0  0  0  0  0  0
   50.8777   29.4196   11.5853 H   0  0  0  0  0  0
   48.3911   29.5059   13.1992 H   0  0  0  0  0  0
   50.1094   29.5812   13.7174 H   0  0  0  0  0  0
   49.4447   22.7262   15.6374 H   0  0  0  0  0  0
   52.9746   24.8356   14.6283 H   0  0  0  0  0  0
   48.1527   24.7759   15.4244 H   0  0  0  0  0  0
   51.6785   26.8985   14.4137 H   0  0  0  0  0  0
  1  5  2  0  0  0
  1  6  1  0  0  0
  1  7  1  0  0  0
  1  9  1  0  0  0
  2 21  1  0  0  0
  3 21  1  0  0  0
  4 21  1  0  0  0
  8 18  2  0  0  0
  9 12  1  0  0  0
 10 19  1  0  0  0
 10 21  1  0  0  0
 11 13  1  0  0  0
 11 18  1  0  0  0
 11 22  1  0  0  0
 12 13  1  0  0  0
 12 23  1  0  0  0
 12 24  1  0  0  0
 13 25  1  0  0  0
 13 26  1  0  0  0
 14 16  2  0  0  0
 14 19  1  0  0  0
 14 27  1  0  0  0
 15 17  1  0  0  0
 15 19  2  0  0  0
 15 28  1  0  0  0
 16 20  1  0  0  0
 16 29  1  0  0  0
 17 20  2  0  0  0
 17 30  1  0  0  0
 18 20  1  0  0  0
M  END
$$$$