#    Name:    2clm_ligand
#    Version:    PDBbind v2024

@<TRIPOS>MOLECULE
2clm_ligand
   30    30     1     0     0
SMALL
USER_CHARGES

@<TRIPOS>ATOM
      1 P18        47.8510   29.3390   10.1260 P.3       1 F6F         0.0000
      2 F9         50.9710   21.2260   13.7530 F         1 F6F         0.0000
      3 F10        52.9510   20.6170   14.2800 F         1 F6F         0.0000
      4 F11        52.6500   22.3460   13.0490 F         1 F6F         0.0000
      5 O19        46.7620   30.3580    9.8740 O.co2     1 F6F        -0.6667
      6 O20        47.3100   28.2380   11.0120 O.co2     1 F6F        -0.6667
      7 O21        48.5210   29.0100    8.8110 O.co2     1 F6F        -0.6667
      8 O14        47.7400   27.2130   14.9930 O.2       1 F6F         0.0000
      9 O17        49.0580   30.0500   10.9720 O.3       1 F6F         0.0000
     10 O7         52.1270   22.4740   15.2610 O.3       1 F6F         0.0000
     11 N13        49.3210   27.6400   13.5000 N.am      1 F6F         0.0000
     12 C16        49.8190   29.1250   11.6330 C.3       1 F6F         0.0000
     13 C15        49.3840   29.0460   13.0870 C.3       1 F6F         0.0000
     14 C2         49.9030   23.5790   15.3870 C.ar      1 F6F         0.0000
     15 C6         51.9880   24.8250   14.7910 C.ar      1 F6F         0.0000
     16 C3         49.1390   24.7910   15.2600 C.ar      1 F6F         0.0000
     17 C5         51.2210   26.0450   14.6630 C.ar      1 F6F         0.0000
     18 C12        48.9480   27.3140   14.7720 C.2       1 F6F         0.0000
     19 C1         51.3270   23.5870   15.1550 C.ar      1 F6F         0.0000
     20 C4         49.7880   26.0320   14.8960 C.ar      1 F6F         0.0000
     21 C8         52.1730   21.6710   14.0860 C.3       1 F6F         0.0000
     22 H          49.5747   26.8445   12.7839 H         1 F6F         0.0000
     23 H          49.6909   28.1398   11.1607 H         1 F6F         0.0000
     24 H          50.8777   29.4196   11.5853 H         1 F6F         0.0000
     25 H          48.3911   29.5059   13.1992 H         1 F6F         0.0000
     26 H          50.1094   29.5812   13.7174 H         1 F6F         0.0000
     27 H          49.4035   22.6495   15.6600 H         1 F6F         0.0000
     28 H          53.0634   24.8366   14.6137 H         1 F6F         0.0000
     29 H          48.0639   24.7745   15.4392 H         1 F6F         0.0000
     30 H          51.7197   26.9753   14.3912 H         1 F6F         0.0000
@<TRIPOS>BOND
     1    1    5 ar
     2    1    6 ar
     3    1    7 ar
     4    1    9 1
     5    2   21 1
     6    3   21 1
     7    4   21 1
     8    8   18 2
     9    9   12 1
    10   10   19 1
    11   10   21 1
    12   11   13 1
    13   11   18 am
    14   11   22 1
    15   12   13 1
    16   12   23 1
    17   12   24 1
    18   13   25 1
    19   13   26 1
    20   14   16 ar
    21   14   19 ar
    22   14   27 1
    23   15   17 ar
    24   15   19 ar
    25   15   28 1
    26   16   20 ar
    27   16   29 1
    28   17   20 ar
    29   17   30 1
    30   18   20 1

