#    Name:    1a4k_ligand
#    Version:    PDBbind v2024

@<TRIPOS>MOLECULE
1a4k_ligand
   53    56     1     0     0
SMALL
USER_CHARGES

@<TRIPOS>ATOM
      1 O18        61.6140   58.8990    0.5950 O.co2     1 FRA         0.0000
      2 O20        62.8570   55.6150   -1.5650 O.co2     1 FRA        -0.5000
      3 O21        62.5680   56.4280   -3.5860 O.co2     1 FRA        -0.5000
      4 O3         50.8850   55.1150   -2.6590 O.2       1 FRA         0.0000
      5 O11        55.0390   57.5760    2.7530 O.2       1 FRA         0.0000
      6 O8         57.9560   56.7450   -0.6760 O.2       1 FRA         0.0000
      7 O19        61.4560   58.3780   -1.6840 O.3       1 FRA         0.0000
      8 N1         52.2350   53.6590   -1.7540 N.am      1 FRA         0.0000
      9 N15        59.6760   59.0830   -0.5740 N.am      1 FRA         0.0000
     10 N5         56.2310   56.9060    0.8570 N.am      1 FRA         0.0000
     11 C22        50.2860   52.8420   -3.1240 C.3       1 FRA         0.0000
     12 C19        62.8550   57.9820   -1.7930 C.3       1 FRA         0.0000
     13 C7         52.9360   55.6750   -0.5450 C.ar      1 FRA         0.0000
     14 C3         54.6030   53.9410   -1.0110 C.ar      1 FRA         0.0000
     15 C6         53.9010   56.4450    0.0810 C.ar      1 FRA         0.0000
     16 C4         55.5860   54.7260   -0.3700 C.ar      1 FRA         0.0000
     17 C17        56.4420   60.6330    1.0870 C.3       1 FRA         0.0000
     18 C13        58.3790   60.7280    2.7710 C.3       1 FRA         0.0000
     19 C16        57.4930   60.2660   -0.0840 C.3       1 FRA         0.0000
     20 C14        59.3000   60.4320    1.7600 C.3       1 FRA         0.0000
     21 C18        60.9740   58.8130   -0.4580 C.2       1 FRA         0.0000
     22 C20        62.7550   56.5810   -2.3620 C.2       1 FRA         0.0000
     23 C1         51.1620   53.9170   -2.4930 C.2       1 FRA         0.0000
     24 C11        56.0470   57.5970    2.0360 C.2       1 FRA         0.0000
     25 C8         57.4640   57.1880    0.3660 C.2       1 FRA         0.0000
     26 C2         53.2650   54.4200   -1.1020 C.ar      1 FRA         0.0000
     27 C5         55.2450   56.0050    0.1910 C.ar      1 FRA         0.0000
     28 C12        56.9910   60.0720    2.5010 C.3       1 FRA         0.0000
     29 C10        57.2500   58.4580    2.3960 C.3       1 FRA         0.0000
     30 C9         58.2570   58.1630    1.2260 C.3       1 FRA         0.0000
     31 C15        58.7680   59.5000    0.5310 C.3       1 FRA         0.0000
     32 H          52.5012   52.6188   -1.5151 H         1 FRA         0.0000
     33 H          59.2845   58.9746   -1.5963 H         1 FRA         0.0000
     34 H          49.4665   53.3180   -3.6824 H         1 FRA         0.0000
     35 H          49.8676   52.2001   -2.3348 H         1 FRA         0.0000
     36 H          50.8915   52.2318   -3.8104 H         1 FRA         0.0000
     37 H          63.3821   58.6782   -2.4620 H         1 FRA         0.0000
     38 H          63.3216   58.0063   -0.7972 H         1 FRA         0.0000
     39 H          51.9114   56.0414   -0.6086 H         1 FRA         0.0000
     40 H          54.8672   52.9720   -1.4346 H         1 FRA         0.0000
     41 H          53.6216   57.4120    0.4992 H         1 FRA         0.0000
     42 H          56.6103   54.3599   -0.3000 H         1 FRA         0.0000
     43 H          56.3260   61.7253    1.1465 H         1 FRA         0.0000
     44 H          55.4684   60.1725    0.8634 H         1 FRA         0.0000
     45 H          58.7571   60.3518    3.7330 H         1 FRA         0.0000
     46 H          58.2396   61.8174    2.8326 H         1 FRA         0.0000
     47 H          57.0048   59.6146   -0.8239 H         1 FRA         0.0000
     48 H          57.8315   61.1899   -0.5757 H         1 FRA         0.0000
     49 H          59.6480   61.3666    1.2959 H         1 FRA         0.0000
     50 H          60.1578   59.8951    2.1911 H         1 FRA         0.0000
     51 H          56.2846   60.3274    3.3046 H         1 FRA         0.0000
     52 H          57.5699   58.1360    3.3980 H         1 FRA         0.0000
     53 H          59.2041   57.6803    1.5089 H         1 FRA         0.0000
@<TRIPOS>BOND
     1    1   21 ar
     2    2   22 ar
     3    3   22 ar
     4    4   23 2
     5    5   24 2
     6    6   25 2
     7    7   12 1
     8    7   21 1
     9    8   23 am
    10    8   26 1
    11    8   32 1
    12    9   21 am
    13    9   31 1
    14    9   33 1
    15   10   24 am
    16   10   25 am
    17   10   27 1
    18   11   23 1
    19   11   34 1
    20   11   35 1
    21   11   36 1
    22   12   22 1
    23   12   37 1
    24   12   38 1
    25   13   15 ar
    26   13   26 ar
    27   13   39 1
    28   14   16 ar
    29   14   26 ar
    30   14   40 1
    31   15   27 ar
    32   15   41 1
    33   16   27 ar
    34   16   42 1
    35   17   19 1
    36   17   28 1
    37   17   43 1
    38   17   44 1
    39   18   20 1
    40   18   28 1
    41   18   45 1
    42   18   46 1
    43   19   31 1
    44   19   47 1
    45   19   48 1
    46   20   31 1
    47   20   49 1
    48   20   50 1
    49   24   29 1
    50   25   30 1
    51   28   29 1
    52   28   51 1
    53   29   30 1
    54   29   52 1
    55   30   31 1
    56   30   53 1

