1a4k_ligand
Version: PDBbind v2024

 53 56  0  0  1  0            999 V2000
   61.6140   58.8990    0.5950 O   0  0  0  0  0  0
   62.8570   55.6150   -1.5650 O   0  0  0  0  0  0
   62.5680   56.4280   -3.5860 O   0  5  0  0  0  0
   50.8850   55.1150   -2.6590 O   0  0  0  0  0  0
   55.0390   57.5760    2.7530 O   0  0  0  0  0  0
   57.9560   56.7450   -0.6760 O   0  0  0  0  0  0
   61.4560   58.3780   -1.6840 O   0  0  0  0  0  0
   52.2350   53.6590   -1.7540 N   0  0  0  0  0  0
   59.6760   59.0830   -0.5740 N   0  0  0  0  0  0
   56.2310   56.9060    0.8570 N   0  0  0  0  0  0
   50.2860   52.8420   -3.1240 C   0  0  0  0  0  0
   62.8550   57.9820   -1.7930 C   0  0  0  0  0  0
   52.9360   55.6750   -0.5450 C   0  0  0  0  0  0
   54.6030   53.9410   -1.0110 C   0  0  0  0  0  0
   53.9010   56.4450    0.0810 C   0  0  0  0  0  0
   55.5860   54.7260   -0.3700 C   0  0  0  0  0  0
   56.4420   60.6330    1.0870 C   0  0  0  0  0  0
   58.3790   60.7280    2.7710 C   0  0  0  0  0  0
   57.4930   60.2660   -0.0840 C   0  0  0  0  0  0
   59.3000   60.4320    1.7600 C   0  0  0  0  0  0
   60.9740   58.8130   -0.4580 C   0  0  0  0  0  0
   62.7550   56.5810   -2.3620 C   0  0  0  0  0  0
   51.1620   53.9170   -2.4930 C   0  0  0  0  0  0
   56.0470   57.5970    2.0360 C   0  0  0  0  0  0
   57.4640   57.1880    0.3660 C   0  0  0  0  0  0
   53.2650   54.4200   -1.1020 C   0  0  0  0  0  0
   55.2450   56.0050    0.1910 C   0  0  0  0  0  0
   56.9910   60.0720    2.5010 C   0  0  2  0  0  0
   57.2500   58.4580    2.3960 C   0  0  2  0  0  0
   58.2570   58.1630    1.2260 C   0  0  2  0  0  0
   58.7680   59.5000    0.5310 C   0  0  2  0  0  0
   52.5012   52.6188   -1.5151 H   0  0  0  0  0  0
   59.2845   58.9746   -1.5963 H   0  0  0  0  0  0
   49.4665   53.3180   -3.6824 H   0  0  0  0  0  0
   49.8676   52.2001   -2.3348 H   0  0  0  0  0  0
   50.8915   52.2318   -3.8104 H   0  0  0  0  0  0
   63.3821   58.6782   -2.4620 H   0  0  0  0  0  0
   63.3216   58.0063   -0.7972 H   0  0  0  0  0  0
   51.9960   56.0111   -0.6034 H   0  0  0  0  0  0
   54.8454   53.0521   -1.3996 H   0  0  0  0  0  0
   53.6447   57.3322    0.4647 H   0  0  0  0  0  0
   56.5257   54.3901   -0.3058 H   0  0  0  0  0  0
   56.3260   61.7253    1.1465 H   0  0  0  0  0  0
   55.4684   60.1725    0.8634 H   0  0  0  0  0  0
   58.7571   60.3518    3.7330 H   0  0  0  0  0  0
   58.2396   61.8174    2.8326 H   0  0  0  0  0  0
   57.0048   59.6146   -0.8239 H   0  0  0  0  0  0
   57.8315   61.1899   -0.5757 H   0  0  0  0  0  0
   59.6480   61.3666    1.2959 H   0  0  0  0  0  0
   60.1578   59.8951    2.1911 H   0  0  0  0  0  0
   56.2846   60.3274    3.3046 H   0  0  0  0  0  0
   57.5699   58.1360    3.3980 H   0  0  0  0  0  0
   59.2041   57.6803    1.5089 H   0  0  0  0  0  0
  1 21  2  0  0  0
  2 22  2  0  0  0
  3 22  1  0  0  0
  4 23  2  0  0  0
  5 24  2  0  0  0
  6 25  2  0  0  0
  7 12  1  0  0  0
  7 21  1  0  0  0
  8 23  1  0  0  0
  8 26  1  0  0  0
  8 32  1  0  0  0
  9 21  1  0  0  0
  9 31  1  0  0  0
  9 33  1  0  0  0
 10 24  1  0  0  0
 10 25  1  0  0  0
 10 27  1  0  0  0
 11 23  1  0  0  0
 11 34  1  0  0  0
 11 35  1  0  0  0
 11 36  1  0  0  0
 12 22  1  0  0  0
 12 37  1  0  0  0
 12 38  1  0  0  0
 13 15  1  0  0  0
 13 26  2  0  0  0
 13 39  1  0  0  0
 14 16  2  0  0  0
 14 26  1  0  0  0
 14 40  1  0  0  0
 15 27  2  0  0  0
 15 41  1  0  0  0
 16 27  1  0  0  0
 16 42  1  0  0  0
 17 19  1  0  0  0
 17 28  1  0  0  0
 17 43  1  0  0  0
 17 44  1  0  0  0
 18 20  1  0  0  0
 18 28  1  0  0  0
 18 45  1  0  0  0
 18 46  1  0  0  0
 19 31  1  0  0  0
 19 47  1  0  0  0
 19 48  1  0  0  0
 20 31  1  0  0  0
 20 49  1  0  0  0
 20 50  1  0  0  0
 24 29  1  0  0  0
 25 30  1  0  0  0
 28 29  1  0  0  0
 28 51  1  0  0  0
 29 30  1  0  0  0
 29 52  1  0  0  0
 30 31  1  0  0  0
 30 53  1  0  0  0
M  END
$$$$