#    Name:    1a4r_ligand
#    Version:    PDBbind v2024

@<TRIPOS>MOLECULE
1a4r_ligand
   42    44     1     0     0
SMALL
USER_CHARGES

@<TRIPOS>ATOM
      1 N3B       102.4860   24.8700   -2.9090 N.am      1 GNH         0.0000
      2 PB        101.5220   25.8860   -2.4280 P.3       1 GNH         0.0000
      3 O1B       100.9830   25.4700   -1.0790 O.co2     1 GNH        -0.5000
      4 O2B       100.3500   26.2500   -3.2730 O.co2     1 GNH        -0.5000
      5 O3A       102.4090   27.1490   -2.1360 O.3       1 GNH         0.0000
      6 PA        102.9800   27.8190   -0.7750 P.3       1 GNH         0.0000
      7 O1A       103.9320   26.8730   -0.1570 O.co2     1 GNH        -0.5000
      8 O2A       101.8500   28.3180    0.0570 O.co2     1 GNH        -0.5000
      9 O5'       103.7180   29.0170   -1.4980 O.3       1 GNH         0.0000
     10 C5'       104.8640   28.8490   -2.3670 C.3       1 GNH         0.0000
     11 C4'       105.9930   29.8990   -2.1000 C.3       1 GNH         0.0000
     12 O4'       105.4820   31.1830   -2.4390 O.3       1 GNH         0.0000
     13 C3'       106.4630   30.0620   -0.6570 C.3       1 GNH         0.0000
     14 O3'       107.8730   30.1930   -0.5940 O.3       1 GNH         0.0000
     15 C2'       105.7350   31.2660   -0.0960 C.3       1 GNH         0.0000
     16 O2'       106.2980   31.8890    1.0590 O.3       1 GNH         0.0000
     17 C1'       105.5820   32.1390   -1.3490 C.3       1 GNH         0.0000
     18 N9        104.3150   32.9430   -1.5100 N.pl3     1 GNH         0.0000
     19 C8        103.0000   32.5360   -1.3540 C.2       1 GNH         0.0000
     20 N7        102.0730   33.4460   -1.5560 N.2       1 GNH         0.0000
     21 C5        102.8070   34.5960   -1.8890 C.2       1 GNH         0.0000
     22 C6        102.3660   35.9710   -2.2360 C.2       1 GNH         0.0000
     23 O6        101.2060   36.3850   -2.3060 O.2       1 GNH         0.0000
     24 N1        103.4480   36.8880   -2.5220 N.am      1 GNH         0.0000
     25 C2        104.8390   36.5560   -2.4810 C.2       1 GNH         0.0000
     26 N2        105.7330   37.5170   -2.7670 N.pl3     1 GNH         0.0000
     27 N3        105.2800   35.2710   -2.1570 N.2       1 GNH         0.0000
     28 C4        104.2050   34.3230   -1.8660 C.2       1 GNH         0.0000
     29 H         102.1650   23.9586   -3.1665 H         1 GNH         0.0000
     30 H         103.4580   25.0953   -2.9763 H         1 GNH         0.0000
     31 H         105.2956   27.8486   -2.2154 H         1 GNH         0.0000
     32 H         104.5484   28.9571   -3.4152 H         1 GNH         0.0000
     33 H         106.8554   29.6064   -2.7170 H         1 GNH         0.0000
     34 H         106.3017   29.1701   -0.0337 H         1 GNH         0.0000
     35 H         108.5178   29.3851   -0.9702 H         1 GNH         0.0000
     36 H         104.8057   31.0276    0.4421 H         1 GNH         0.0000
     37 H         106.4312   31.3114    1.9856 H         1 GNH         0.0000
     38 H         106.4225   32.8486   -1.3504 H         1 GNH         0.0000
     39 H         102.7469   31.5134   -1.0779 H         1 GNH         0.0000
     40 H         103.2277   37.9302   -2.7962 H         1 GNH         0.0000
     41 H         105.3888   38.5300   -3.0225 H         1 GNH         0.0000
     42 H         106.8093   37.2909   -2.7456 H         1 GNH         0.0000
@<TRIPOS>BOND
     1    1    2 am
     2    1   29 1
     3    1   30 1
     4    2    3 ar
     5    2    4 ar
     6    2    5 1
     7    5    6 1
     8    6    7 ar
     9    6    8 ar
    10    6    9 1
    11    9   10 1
    12   10   11 1
    13   10   31 1
    14   10   32 1
    15   11   12 1
    16   11   13 1
    17   11   33 1
    18   12   17 1
    19   13   14 1
    20   13   15 1
    21   13   34 1
    22   14   35 1
    23   15   16 1
    24   15   17 1
    25   15   36 1
    26   16   37 1
    27   17   18 1
    28   17   38 1
    29   18   19 1
    30   18   28 1
    31   19   20 2
    32   19   39 1
    33   20   21 1
    34   21   22 1
    35   21   28 2
    36   22   23 2
    37   22   24 am
    38   24   25 am
    39   24   40 1
    40   25   26 1
    41   25   27 2
    42   26   41 1
    43   26   42 1
    44   27   28 1

