1a4r_ligand
Version: PDBbind v2024

 42 44  0  0  1  0            999 V2000
  102.9800   27.8190   -0.7750 P   0  0  0  0  0  0
  101.5220   25.8860   -2.4280 P   0  0  0  0  0  0
  103.9320   26.8730   -0.1570 O   0  0  0  0  0  0
  101.8500   28.3180    0.0570 O   0  5  0  0  0  0
  100.9830   25.4700   -1.0790 O   0  0  0  0  0  0
  100.3500   26.2500   -3.2730 O   0  5  0  0  0  0
  101.2060   36.3850   -2.3060 O   0  0  0  0  0  0
  106.2980   31.8890    1.0590 O   0  0  0  0  0  0
  107.8730   30.1930   -0.5940 O   0  0  0  0  0  0
  102.4090   27.1490   -2.1360 O   0  0  0  0  0  0
  103.7180   29.0170   -1.4980 O   0  0  0  0  0  0
  105.4820   31.1830   -2.4390 O   0  0  0  0  0  0
  102.4860   24.8700   -2.9090 N   0  0  0  0  0  0
  105.7330   37.5170   -2.7670 N   0  0  0  0  0  0
  102.0730   33.4460   -1.5560 N   0  0  0  0  0  0
  103.4480   36.8880   -2.5220 N   0  0  0  0  0  0
  105.2800   35.2710   -2.1570 N   0  0  0  0  0  0
  104.3150   32.9430   -1.5100 N   0  0  0  0  0  0
  104.8640   28.8490   -2.3670 C   0  0  0  0  0  0
  103.0000   32.5360   -1.3540 C   0  0  0  0  0  0
  102.3660   35.9710   -2.2360 C   0  0  0  0  0  0
  104.8390   36.5560   -2.4810 C   0  0  0  0  0  0
  105.7350   31.2660   -0.0960 C   0  0  2  0  0  0
  106.4630   30.0620   -0.6570 C   0  0  1  0  0  0
  105.5820   32.1390   -1.3490 C   0  0  1  0  0  0
  105.9930   29.8990   -2.1000 C   0  0  2  0  0  0
  104.2050   34.3230   -1.8660 C   0  0  0  0  0  0
  102.8070   34.5960   -1.8890 C   0  0  0  0  0  0
  106.4312   31.3114    1.9856 H   0  0  0  0  0  0
  108.3707   30.3190    0.3788 H   0  0  0  0  0  0
  102.8427   25.1453   -3.8017 H   0  0  0  0  0  0
  103.2410   24.7923   -2.2579 H   0  0  0  0  0  0
  105.3888   38.5300   -3.0225 H   0  0  0  0  0  0
  106.8093   37.2909   -2.7456 H   0  0  0  0  0  0
  103.2277   37.9302   -2.7962 H   0  0  0  0  0  0
  105.2956   27.8486   -2.2154 H   0  0  0  0  0  0
  104.5484   28.9571   -3.4152 H   0  0  0  0  0  0
  102.7676   31.5970   -1.1004 H   0  0  0  0  0  0
  104.8057   31.0276    0.4421 H   0  0  0  0  0  0
  106.3017   29.1701   -0.0337 H   0  0  0  0  0  0
  106.4225   32.8486   -1.3504 H   0  0  0  0  0  0
  106.8554   29.6064   -2.7170 H   0  0  0  0  0  0
  1  3  2  0  0  0
  1  4  1  0  0  0
  1 10  1  0  0  0
  1 11  1  0  0  0
  2  5  2  0  0  0
  2  6  1  0  0  0
  2 10  1  0  0  0
  2 13  1  0  0  0
  7 21  2  0  0  0
  8 23  1  0  0  0
  8 29  1  0  0  0
  9 24  1  0  0  0
  9 30  1  0  0  0
 11 19  1  0  0  0
 12 25  1  0  0  0
 12 26  1  0  0  0
 13 31  1  0  0  0
 13 32  1  0  0  0
 14 22  1  0  0  0
 14 33  1  0  0  0
 14 34  1  0  0  0
 15 20  2  0  0  0
 15 28  1  0  0  0
 16 21  1  0  0  0
 16 22  1  0  0  0
 16 35  1  0  0  0
 17 22  2  0  0  0
 17 27  1  0  0  0
 18 20  1  0  0  0
 18 25  1  0  0  0
 18 27  1  0  0  0
 19 26  1  0  0  0
 19 36  1  0  0  0
 19 37  1  0  0  0
 20 38  1  0  0  0
 21 28  1  0  0  0
 23 24  1  0  0  0
 23 25  1  0  0  0
 23 39  1  0  0  0
 24 26  1  0  0  0
 24 40  1  0  0  0
 25 41  1  0  0  0
 26 42  1  0  0  0
 27 28  2  0  0  0
M  END
$$$$