1a3e_ligand
Version: PDBbind v2024

158160  0  0  1  0            999 V2000
    6.2510  -10.8530   -1.7460 O   0  0  0  0  0  0
    8.6580  -13.2030   -2.1690 N   0  3  0  0  0  0
    6.6170  -11.9940   -1.4310 C   0  0  0  0  0  0
    7.2360  -12.9370   -2.4750 C   0  0  0  0  0  0
    9.0765  -13.8788   -2.9294 H   0  0  0  0  0  0
    8.7381  -13.6723   -1.1773 H   0  0  0  0  0  0
    7.1559  -12.4677   -3.4667 H   0  0  0  0  0  0
    6.6767  -13.8842   -2.4714 H   0  0  0  0  0  0
    4.8730   -9.7370    1.0600 O   0  0  0  0  0  0
    8.8370  -11.9310    0.8780 O   0  0  0  0  0  0
    8.9320  -13.4660    2.4960 O   0  5  0  0  0  0
    6.5380  -12.5370   -0.2380 N   0  0  0  0  0  0
    5.9350  -10.3600    0.9250 C   0  0  0  0  0  0
    6.8080  -12.2980    2.1880 C   0  0  0  0  0  0
    8.2680  -12.5810    1.8350 C   0  0  0  0  0  0
    5.9720  -11.9030    0.9720 C   0  0  2  0  0  0
    6.3561  -13.1989    2.6286 H   0  0  0  0  0  0
    6.7594  -11.4716    2.9124 H   0  0  0  0  0  0
    4.9430  -12.2905    1.0029 H   0  0  0  0  0  0
    6.9435  -13.5582   -0.1854 H   0  0  0  0  0  0
    7.6620   -8.1490   -1.5990 O   0  0  0  0  0  0
    7.0900   -9.7460    0.7580 N   0  0  0  0  0  0
    7.0480   -7.6830   -0.6330 C   0  0  0  0  0  0
    8.5290   -7.8620    5.6460 C   0  0  0  0  0  0
    8.7630   -9.0490    4.9430 C   0  0  0  0  0  0
    8.3130   -6.6670    4.9500 C   0  0  0  0  0  0
    8.7790   -9.0410    3.5450 C   0  0  0  0  0  0
    8.3250   -6.6610    3.5520 C   0  0  0  0  0  0
    8.5480   -7.8470    1.3300 C   0  0  0  0  0  0
    7.1930   -8.2730    0.7680 C   0  0  2  0  0  0
    8.5550   -7.8490    2.8520 C   0  0  0  0  0  0
    8.5161   -7.8675    6.6459 H   0  0  0  0  0  0
    8.9187   -9.9025    5.4402 H   0  0  0  0  0  0
    8.1502   -5.8179    5.4525 H   0  0  0  0  0  0
    8.9506   -9.8879    3.0416 H   0  0  0  0  0  0
    8.1693   -5.8082    3.0535 H   0  0  0  0  0  0
    9.3251   -8.5427    0.9804 H   0  0  0  0  0  0
    8.7846   -6.8296    0.9851 H   0  0  0  0  0  0
    6.3635   -7.9306    1.4042 H   0  0  0  0  0  0
    7.9908  -10.3593    0.6086 H   0  0  0  0  0  0
    8.1120   -4.8340   -1.4210 O   0  0  0  0  0  0
    2.8700   -3.0550   -2.0000 O   0  0  0  0  0  0
    3.2690   -2.3910   -4.0970 O   0  5  0  0  0  0
    6.2230   -6.6510   -0.7240 N   0  0  0  0  0  0
    7.3790   -5.2710   -2.3190 C   0  0  0  0  0  0
    4.7440   -4.0980   -3.1640 C   0  0  0  0  0  0
    4.9360   -4.9030   -1.8800 C   0  0  0  0  0  0
    3.5660   -3.1300   -3.0840 C   0  0  0  0  0  0
    6.0450   -5.9400   -1.9910 C   0  0  2  0  0  0
    5.6504   -3.5085   -3.3662 H   0  0  0  0  0  0
    4.5585   -4.7847   -4.0031 H   0  0  0  0  0  0
    5.1953   -4.2222   -1.0558 H   0  0  0  0  0  0
    4.0038   -5.4342   -1.6374 H   0  0  0  0  0  0
    5.7498   -6.6689   -2.7602 H   0  0  0  0  0  0
    5.6676   -6.3300    0.1696 H   0  0  0  0  0  0
    8.1030   -2.4120   -4.0960 O   0  0  0  0  0  0
   11.6710   -5.7480   -4.7310 O   0  0  0  0  0  0
   11.1160   -7.9120   -4.7110 O   0  5  0  0  0  0
    7.6630   -5.2100   -3.5950 N   0  0  0  0  0  0
    9.0660   -3.1680   -3.9090 C   0  0  0  0  0  0
    9.6010   -6.3780   -5.8610 C   0  0  0  0  0  0
    9.0670   -4.9740   -5.5860 C   0  0  0  0  0  0
   10.8610   -6.6970   -5.0580 C   0  0  0  0  0  0
    8.9370   -4.6810   -4.0970 C   0  0  2  0  0  0
    8.8345   -7.1205   -5.5944 H   0  0  0  0  0  0
    9.8485   -6.4736   -6.9285 H   0  0  0  0  0  0
    9.7517   -4.2300   -6.0191 H   0  0  0  0  0  0
    8.0715   -4.8647   -6.0409 H   0  0  0  0  0  0
    9.6991   -5.1999   -3.4971 H   0  0  0  0  0  0
    6.9026   -5.5749   -4.3011 H   0  0  0  0  0  0
   11.8150   -1.4940   -5.4470 O   0  0  0  0  0  0
   10.2830   -2.7980   -3.5500 N   0  0  0  0  0  0
   10.5690   -1.7860   -0.4430 C   0  0  0  0  0  0
   12.3320    0.1380   -2.1700 C   0  0  0  0  0  0
   11.0880   -0.8180   -4.7290 C   0  0  0  0  0  0
   11.8700   -2.0530   -1.1930 C   0  0  0  0  0  0
   10.6880   -1.4010   -3.3740 C   0  0  2  0  0  0
   11.9580   -1.3050   -2.5200 C   0  0  1  0  0  0
   10.5671   -2.3513    0.5006 H   0  0  0  0  0  0
    9.7170   -2.1033   -1.0623 H   0  0  0  0  0  0
   10.4846   -0.7108   -0.2265 H   0  0  0  0  0  0
   13.2469    0.1418   -1.5593 H   0  0  0  0  0  0
   11.5112    0.6024   -1.6037 H   0  0  0  0  0  0
   12.5065    0.7063   -3.0955 H   0  0  0  0  0  0
   12.7220   -1.7357   -0.5737 H   0  0  0  0  0  0
   11.9544   -3.1282   -1.4095 H   0  0  0  0  0  0
    9.8207   -0.9087   -2.9098 H   0  0  0  0  0  0
   12.7225   -1.7704   -3.1594 H   0  0  0  0  0  0
   11.0094   -3.6067   -3.3814 H   0  0  0  0  0  0
   13.5560    0.8130   -5.4880 O   0  0  0  0  0  0
   10.8130    0.4550   -4.9540 N   0  0  0  0  0  0
   12.7360    0.8790   -6.4100 C   0  0  0  0  0  0
    9.9640    1.3220   -4.0970 C   0  0  0  0  0  0
   10.2080    2.7020   -4.6270 C   0  0  0  0  0  0
   11.0150    2.6110   -5.8670 C   0  0  0  0  0  0
   11.2610    1.1430   -6.1500 C   0  0  2  0  0  0
    8.9114    1.0188   -4.1974 H   0  0  0  0  0  0
   10.2767    1.2190   -3.0474 H   0  0  0  0  0  0
    9.2450    3.1857   -4.8475 H   0  0  0  0  0  0
   10.7514    3.2929   -3.8749 H   0  0  0  0  0  0
   10.4630    3.0735   -6.6985 H   0  0  0  0  0  0
   11.9697    3.1379   -5.7227 H   0  0  0  0  0  0
   10.7020    0.7737   -7.0224 H   0  0  0  0  0  0
   16.6920    0.8930   -7.5160 O   0  0  0  0  0  0
   13.0890    0.7540   -7.6840 N   0  0  0  0  0  0
   15.5510    1.3630   -7.6980 C   0  0  0  0  0  0
   14.4130    0.4450   -8.1630 C   0  0  0  0  0  0
   14.6948   -0.5664   -7.8349 H   0  0  0  0  0  0
   14.4253    0.4907   -9.2620 H   0  0  0  0  0  0
   12.2675    0.9081   -8.3991 H   0  0  0  0  0  0
   18.4730    2.7130   -5.7650 O   0  0  0  0  0  0
   12.9590    4.9790   -5.9200 O   0  0  0  0  0  0
   12.7090    5.0310   -8.1400 O   0  5  0  0  0  0
   15.3150    2.5800   -7.3730 N   0  0  0  0  0  0
   17.2350    2.7720   -5.7180 C   0  0  0  0  0  0
   14.9390    5.4740   -7.2570 C   0  0  0  0  0  0
   15.8270    4.7200   -6.2750 C   0  0  0  0  0  0
   13.4570    5.1430   -7.0970 C   0  0  0  0  0  0
   16.4050    3.4410   -6.8610 C   0  0  2  0  0  0
   15.0580    6.5565   -7.1023 H   0  0  0  0  0  0
   15.2295    5.2166   -8.2863 H   0  0  0  0  0  0
   16.6689    5.3613   -5.9750 H   0  0  0  0  0  0
   15.2401    4.4457   -5.3860 H   0  0  0  0  0  0
   17.0200    3.6252   -7.7542 H   0  0  0  0  0  0
   14.2971    2.9841   -7.4759 H   0  0  0  0  0  0
   18.5830   -0.1680   -3.0290 O   0  0  0  0  0  0
   13.2090    6.6830   -2.5760 O   0  0  0  0  0  0
   16.5460    2.2810   -4.6860 N   0  0  0  0  0  0
   17.5700    0.2530   -3.6050 C   0  0  0  0  0  0
   15.2750    5.6050   -2.0410 C   0  0  0  0  0  0
   13.3950    4.3210   -2.8700 C   0  0  0  0  0  0
   16.0400    4.4320   -1.9600 C   0  0  0  0  0  0
   14.1570    3.1510   -2.7880 C   0  0  0  0  0  0
   16.3020    1.9140   -2.2560 C   0  0  0  0  0  0
   13.9530    5.5480   -2.4960 C   0  0  0  0  0  0
   17.2080    1.7240   -3.4720 C   0  0  2  0  0  0
   15.4770    3.2020   -2.3350 C   0  0  0  0  0  0
   13.6459    7.6489   -2.2824 H   0  0  0  0  0  0
   15.6744    6.4819   -1.7736 H   0  0  0  0  0  0
   12.4506    4.2803   -3.1962 H   0  0  0  0  0  0
   16.9851    4.4720   -1.6356 H   0  0  0  0  0  0
   13.7552    2.2750   -3.0547 H   0  0  0  0  0  0
   15.6028    1.0679   -2.1839 H   0  0  0  0  0  0
   16.9163    1.9607   -1.3447 H   0  0  0  0  0  0
   18.1470    2.2877   -3.3700 H   0  0  0  0  0  0
   15.4483    2.2979   -4.7551 H   0  0  0  0  0  0
   15.6370   -1.9820   -6.3790 O   0  0  0  0  0  0
   17.3350   -3.4120   -6.3650 O   0  5  0  0  0  0
   16.7870   -0.5350   -4.3390 N   0  0  0  0  0  0
   16.4490   -2.7840   -3.3880 C   0  0  0  0  0  0
   16.6550   -2.4910   -5.8530 C   0  0  0  0  0  0
   17.0970   -1.9530   -4.4960 C   0  0  1  0  0  0
   16.7658   -2.3985   -2.4077 H   0  0  0  0  0  0
   16.7608   -3.8342   -3.4873 H   0  0  0  0  0  0
   15.3543   -2.7170   -3.4720 H   0  0  0  0  0  0
   18.1940   -1.9914   -4.4239 H   0  0  0  0  0  0
   15.8996   -0.1084   -4.8294 H   0  0  0  0  0  0
    9.2172  -12.2558   -2.1727 H   0  0  0  0  0  0
  1  3  2  0  0  0
  2  4  1  0  0  0
  2  5  1  0  0  0
  2  6  1  0  0  0
  2158  1  0  0  0
  3  4  1  0  0  0
  3 12  1  0  0  0
  4  7  1  0  0  0
  4  8  1  0  0  0
  9 13  2  0  0  0
 10 15  2  0  0  0
 11 15  1  0  0  0
 12 16  1  0  0  0
 12 20  1  0  0  0
 13 16  1  0  0  0
 13 22  1  0  0  0
 14 15  1  0  0  0
 14 16  1  0  0  0
 14 18  1  0  0  0
 14 17  1  0  0  0
 16 19  1  0  0  0
 21 23  2  0  0  0
 22 30  1  0  0  0
 22 40  1  0  0  0
 23 30  1  0  0  0
 23 44  1  0  0  0
 24 25  2  0  0  0
 24 26  1  0  0  0
 24 32  1  0  0  0
 25 27  1  0  0  0
 25 33  1  0  0  0
 26 28  2  0  0  0
 26 34  1  0  0  0
 27 31  2  0  0  0
 27 35  1  0  0  0
 28 31  1  0  0  0
 28 36  1  0  0  0
 29 30  1  0  0  0
 29 31  1  0  0  0
 29 38  1  0  0  0
 29 37  1  0  0  0
 30 39  1  0  0  0
 41 45  2  0  0  0
 42 48  2  0  0  0
 43 48  1  0  0  0
 44 49  1  0  0  0
 44 55  1  0  0  0
 45 49  1  0  0  0
 45 59  1  0  0  0
 46 47  1  0  0  0
 46 48  1  0  0  0
 46 50  1  0  0  0
 46 51  1  0  0  0
 47 49  1  0  0  0
 47 53  1  0  0  0
 47 52  1  0  0  0
 49 54  1  0  0  0
 56 60  2  0  0  0
 57 63  2  0  0  0
 58 63  1  0  0  0
 59 64  1  0  0  0
 59 70  1  0  0  0
 60 64  1  0  0  0
 60 72  1  0  0  0
 61 62  1  0  0  0
 61 63  1  0  0  0
 61 65  1  0  0  0
 61 66  1  0  0  0
 62 64  1  0  0  0
 62 68  1  0  0  0
 62 67  1  0  0  0
 64 69  1  0  0  0
 71 75  2  0  0  0
 72 77  1  0  0  0
 72 89  1  0  0  0
 73 76  1  0  0  0
 73 79  1  0  0  0
 73 80  1  0  0  0
 73 81  1  0  0  0
 74 78  1  0  0  0
 74 82  1  0  0  0
 74 83  1  0  0  0
 74 84  1  0  0  0
 75 77  1  0  0  0
 75 91  1  0  0  0
 76 78  1  0  0  0
 76 86  1  0  0  0
 76 85  1  0  0  0
 77 78  1  0  0  0
 77 87  1  0  0  0
 78 88  1  0  0  0
 90 92  2  0  0  0
 91 93  1  0  0  0
 91 96  1  0  0  0
 92 96  1  0  0  0
 92105  1  0  0  0
 93 94  1  0  0  0
 93 97  1  0  0  0
 93 98  1  0  0  0
 94 95  1  0  0  0
 94 99  1  0  0  0
 94100  1  0  0  0
 95 96  1  0  0  0
 95102  1  0  0  0
 95101  1  0  0  0
 96103  1  0  0  0
104106  2  0  0  0
105107  1  0  0  0
105110  1  0  0  0
106107  1  0  0  0
106114  1  0  0  0
107109  1  0  0  0
107108  1  0  0  0
111115  2  0  0  0
112118  2  0  0  0
113118  1  0  0  0
114119  1  0  0  0
114125  1  0  0  0
115119  1  0  0  0
115128  1  0  0  0
116117  1  0  0  0
116118  1  0  0  0
116120  1  0  0  0
116121  1  0  0  0
117119  1  0  0  0
117123  1  0  0  0
117122  1  0  0  0
119124  1  0  0  0
126129  2  0  0  0
127135  1  0  0  0
127138  1  0  0  0
128136  1  0  0  0
128146  1  0  0  0
129136  1  0  0  0
129149  1  0  0  0
130132  1  0  0  0
130135  2  0  0  0
130139  1  0  0  0
131133  2  0  0  0
131135  1  0  0  0
131140  1  0  0  0
132137  2  0  0  0
132141  1  0  0  0
133137  1  0  0  0
133142  1  0  0  0
134136  1  0  0  0
134137  1  0  0  0
134144  1  0  0  0
134143  1  0  0  0
136145  1  0  0  0
147151  2  0  0  0
148151  1  0  0  0
149157  1  0  0  0
149152  1  0  0  0
150153  1  0  0  0
150154  1  0  0  0
150152  1  0  0  0
150155  1  0  0  0
151152  1  0  0  0
152156  1  0  0  0
M  END
$$$$