#    Name:    1a3e_ligand
#    Version:    PDBbind v2024

@<TRIPOS>MOLECULE
1a3e_ligand
  158   160     1     0     0
SMALL
USER_CHARGES

@<TRIPOS>ATOM
      1 O           6.2510  -10.8530   -1.7460 O.2       1 GLY         0.0000
      2 N           8.6580  -13.2030   -2.1690 N.4       1 GLY         1.0000
      3 C           6.6170  -11.9940   -1.4310 C.2       1 GLY         0.0000
      4 CA          7.2360  -12.9370   -2.4750 C.3       1 GLY         0.0000
      5 O           4.8730   -9.7370    1.0600 O.2       1 ASP         0.0000
      6 OD1         8.8370  -11.9310    0.8780 O.co2     1 ASP        -0.5000
      7 OD2         8.9320  -13.4660    2.4960 O.co2     1 ASP        -0.5000
      8 N           6.5380  -12.5370   -0.2380 N.am      1 ASP         0.0000
      9 C           5.9350  -10.3600    0.9250 C.2       1 ASP         0.0000
     10 CB          6.8080  -12.2980    2.1880 C.3       1 ASP         0.0000
     11 CG          8.2680  -12.5810    1.8350 C.2       1 ASP         0.0000
     12 CA          5.9720  -11.9030    0.9720 C.3       1 ASP         0.0000
     13 O           7.6620   -8.1490   -1.5990 O.2       1 PHE         0.0000
     14 N           7.0900   -9.7460    0.7580 N.am      1 PHE         0.0000
     15 C           7.0480   -7.6830   -0.6330 C.2       1 PHE         0.0000
     16 CZ          8.5290   -7.8620    5.6460 C.ar      1 PHE         0.0000
     17 CE1         8.7630   -9.0490    4.9430 C.ar      1 PHE         0.0000
     18 CE2         8.3130   -6.6670    4.9500 C.ar      1 PHE         0.0000
     19 CD1         8.7790   -9.0410    3.5450 C.ar      1 PHE         0.0000
     20 CD2         8.3250   -6.6610    3.5520 C.ar      1 PHE         0.0000
     21 CB          8.5480   -7.8470    1.3300 C.3       1 PHE         0.0000
     22 CA          7.1930   -8.2730    0.7680 C.3       1 PHE         0.0000
     23 CG          8.5550   -7.8490    2.8520 C.ar      1 PHE         0.0000
     24 O           8.1120   -4.8340   -1.4210 O.2       1 GLU         0.0000
     25 OE1         2.8700   -3.0550   -2.0000 O.co2     1 GLU        -0.5000
     26 OE2         3.2690   -2.3910   -4.0970 O.co2     1 GLU        -0.5000
     27 N           6.2230   -6.6510   -0.7240 N.am      1 GLU         0.0000
     28 C           7.3790   -5.2710   -2.3190 C.2       1 GLU         0.0000
     29 CG          4.7440   -4.0980   -3.1640 C.3       1 GLU         0.0000
     30 CB          4.9360   -4.9030   -1.8800 C.3       1 GLU         0.0000
     31 CD          3.5660   -3.1300   -3.0840 C.2       1 GLU         0.0000
     32 CA          6.0450   -5.9400   -1.9910 C.3       1 GLU         0.0000
     33 O           8.1030   -2.4120   -4.0960 O.2       1 GLU         0.0000
     34 OE1        11.6710   -5.7480   -4.7310 O.co2     1 GLU        -0.5000
     35 OE2        11.1160   -7.9120   -4.7110 O.co2     1 GLU        -0.5000
     36 N           7.6630   -5.2100   -3.5950 N.am      1 GLU         0.0000
     37 C           9.0660   -3.1680   -3.9090 C.2       1 GLU         0.0000
     38 CG          9.6010   -6.3780   -5.8610 C.3       1 GLU         0.0000
     39 CB          9.0670   -4.9740   -5.5860 C.3       1 GLU         0.0000
     40 CD         10.8610   -6.6970   -5.0580 C.2       1 GLU         0.0000
     41 CA          8.9370   -4.6810   -4.0970 C.3       1 GLU         0.0000
     42 O          11.8150   -1.4940   -5.4470 O.2       1 ILE         0.0000
     43 N          10.2830   -2.7980   -3.5500 N.am      1 ILE         0.0000
     44 CD1        10.5690   -1.7860   -0.4430 C.3       1 ILE         0.0000
     45 CG2        12.3320    0.1380   -2.1700 C.3       1 ILE         0.0000
     46 C          11.0880   -0.8180   -4.7290 C.2       1 ILE         0.0000
     47 CG1        11.8700   -2.0530   -1.1930 C.3       1 ILE         0.0000
     48 CA         10.6880   -1.4010   -3.3740 C.3       1 ILE         0.0000
     49 CB         11.9580   -1.3050   -2.5200 C.3       1 ILE         0.0000
     50 O          13.5560    0.8130   -5.4880 O.2       1 PRO         0.0000
     51 N          10.8130    0.4550   -4.9540 N.am      1 PRO         0.0000
     52 C          12.7360    0.8790   -6.4100 C.2       1 PRO         0.0000
     53 CD          9.9640    1.3220   -4.0970 C.3       1 PRO         0.0000
     54 CG         10.2080    2.7020   -4.6270 C.3       1 PRO         0.0000
     55 CB         11.0150    2.6110   -5.8670 C.3       1 PRO         0.0000
     56 CA         11.2610    1.1430   -6.1500 C.3       1 PRO         0.0000
     57 O          16.6920    0.8930   -7.5160 O.2       1 GLU         0.0000
     58 N          13.0890    0.7540   -7.6840 N.am      1 GLU         0.0000
     59 C          15.5510    1.3630   -7.6980 C.2       1 GLU         0.0000
     60 CA         14.4130    0.4450   -8.1630 C.3       1 GLU         0.0000
     61 O          18.4730    2.7130   -5.7650 O.2       1 GLU         0.0000
     62 OE1        12.9590    4.9790   -5.9200 O.co2     1 GLU        -0.5000
     63 OE2        12.7090    5.0310   -8.1400 O.co2     1 GLU        -0.5000
     64 N          15.3150    2.5800   -7.3730 N.am      1 GLU         0.0000
     65 C          17.2350    2.7720   -5.7180 C.2       1 GLU         0.0000
     66 CG         14.9390    5.4740   -7.2570 C.3       1 GLU         0.0000
     67 CB         15.8270    4.7200   -6.2750 C.3       1 GLU         0.0000
     68 CD         13.4570    5.1430   -7.0970 C.2       1 GLU         0.0000
     69 CA         16.4050    3.4410   -6.8610 C.3       1 GLU         0.0000
     70 O          18.5830   -0.1680   -3.0290 O.2       1 TYR         0.0000
     71 OH         13.2090    6.6830   -2.5760 O.3       1 TYR         0.0000
     72 N          16.5460    2.2810   -4.6860 N.am      1 TYR         0.0000
     73 C          17.5700    0.2530   -3.6050 C.2       1 TYR         0.0000
     74 CE1        15.2750    5.6050   -2.0410 C.ar      1 TYR         0.0000
     75 CE2        13.3950    4.3210   -2.8700 C.ar      1 TYR         0.0000
     76 CD1        16.0400    4.4320   -1.9600 C.ar      1 TYR         0.0000
     77 CD2        14.1570    3.1510   -2.7880 C.ar      1 TYR         0.0000
     78 CB         16.3020    1.9140   -2.2560 C.3       1 TYR         0.0000
     79 CZ         13.9530    5.5480   -2.4960 C.ar      1 TYR         0.0000
     80 CA         17.2080    1.7240   -3.4720 C.3       1 TYR         0.0000
     81 CG         15.4770    3.2020   -2.3350 C.ar      1 TYR         0.0000
     82 O          15.6370   -1.9820   -6.3790 O.co2     1 LEU        -0.5000
     83 OXT        17.3350   -3.4120   -6.3650 O.co2     1 LEU        -0.5000
     84 N          16.7870   -0.5350   -4.3390 N.am      1 LEU         0.0000
     85 CB         16.4490   -2.7840   -3.3880 C.3       1 LEU         0.0000
     86 C          16.6550   -2.4910   -5.8530 C.2       1 LEU         0.0000
     87 CA         17.0970   -1.9530   -4.4960 C.3       1 LEU         0.0000
     88 H           9.0765  -13.8788   -2.9294 H         1 GLY         0.0000
     89 H           8.7381  -13.6723   -1.1773 H         1 GLY         0.0000
     90 H           9.2172  -12.2558   -2.1727 H         1 GLY         0.0000
     91 H           7.1559  -12.4677   -3.4667 H         1 GLY         0.0000
     92 H           6.6767  -13.8842   -2.4714 H         1 GLY         0.0000
     93 H           6.9435  -13.5582   -0.1854 H         1 ASP         0.0000
     94 H           6.3561  -13.1989    2.6286 H         1 ASP         0.0000
     95 H           6.7594  -11.4716    2.9124 H         1 ASP         0.0000
     96 H           4.9430  -12.2905    1.0029 H         1 ASP         0.0000
     97 H           7.9908  -10.3593    0.6086 H         1 PHE         0.0000
     98 H           8.5149   -7.8680    6.7359 H         1 PHE         0.0000
     99 H           8.9327   -9.9794    5.4850 H         1 PHE         0.0000
    100 H           8.1355   -5.7415    5.4977 H         1 PHE         0.0000
    101 H           8.9661   -9.9641    2.9963 H         1 PHE         0.0000
    102 H           8.1553   -5.7314    3.0087 H         1 PHE         0.0000
    103 H           9.3251   -8.5427    0.9804 H         1 PHE         0.0000
    104 H           8.7846   -6.8296    0.9851 H         1 PHE         0.0000
    105 H           6.3635   -7.9306    1.4042 H         1 PHE         0.0000
    106 H           5.6676   -6.3300    0.1696 H         1 GLU         0.0000
    107 H           5.6504   -3.5085   -3.3662 H         1 GLU         0.0000
    108 H           4.5585   -4.7847   -4.0031 H         1 GLU         0.0000
    109 H           5.1953   -4.2222   -1.0558 H         1 GLU         0.0000
    110 H           4.0038   -5.4342   -1.6374 H         1 GLU         0.0000
    111 H           5.7498   -6.6689   -2.7602 H         1 GLU         0.0000
    112 H           6.9026   -5.5749   -4.3011 H         1 GLU         0.0000
    113 H           8.8345   -7.1205   -5.5944 H         1 GLU         0.0000
    114 H           9.8485   -6.4736   -6.9285 H         1 GLU         0.0000
    115 H           9.7517   -4.2300   -6.0191 H         1 GLU         0.0000
    116 H           8.0715   -4.8647   -6.0409 H         1 GLU         0.0000
    117 H           9.6991   -5.1999   -3.4971 H         1 GLU         0.0000
    118 H          11.0094   -3.6067   -3.3814 H         1 ILE         0.0000
    119 H          10.5671   -2.3513    0.5006 H         1 ILE         0.0000
    120 H           9.7170   -2.1033   -1.0623 H         1 ILE         0.0000
    121 H          10.4846   -0.7108   -0.2265 H         1 ILE         0.0000
    122 H          13.2469    0.1418   -1.5593 H         1 ILE         0.0000
    123 H          11.5112    0.6024   -1.6037 H         1 ILE         0.0000
    124 H          12.5065    0.7063   -3.0955 H         1 ILE         0.0000
    125 H          12.7220   -1.7357   -0.5737 H         1 ILE         0.0000
    126 H          11.9544   -3.1282   -1.4095 H         1 ILE         0.0000
    127 H           9.8207   -0.9087   -2.9098 H         1 ILE         0.0000
    128 H          12.7225   -1.7704   -3.1594 H         1 ILE         0.0000
    129 H           8.9114    1.0188   -4.1974 H         1 PRO         0.0000
    130 H          10.2767    1.2190   -3.0474 H         1 PRO         0.0000
    131 H           9.2450    3.1857   -4.8475 H         1 PRO         0.0000
    132 H          10.7514    3.2929   -3.8749 H         1 PRO         0.0000
    133 H          10.4630    3.0735   -6.6985 H         1 PRO         0.0000
    134 H          11.9697    3.1379   -5.7227 H         1 PRO         0.0000
    135 H          10.7020    0.7737   -7.0224 H         1 PRO         0.0000
    136 H          12.2675    0.9081   -8.3991 H         1 GLU         0.0000
    137 H          14.6948   -0.5664   -7.8349 H         1 GLU         0.0000
    138 H          14.4253    0.4907   -9.2620 H         1 GLU         0.0000
    139 H          14.2971    2.9841   -7.4759 H         1 GLU         0.0000
    140 H          15.0580    6.5565   -7.1023 H         1 GLU         0.0000
    141 H          15.2295    5.2166   -8.2863 H         1 GLU         0.0000
    142 H          16.6689    5.3613   -5.9750 H         1 GLU         0.0000
    143 H          15.2401    4.4457   -5.3860 H         1 GLU         0.0000
    144 H          17.0200    3.6252   -7.7542 H         1 GLU         0.0000
    145 H          13.6459    7.6489   -2.2824 H         1 TYR         0.0000
    146 H          15.4483    2.2979   -4.7551 H         1 TYR         0.0000
    147 H          15.7103    6.5608   -1.7495 H         1 TYR         0.0000
    148 H          12.3656    4.2767   -3.2256 H         1 TYR         0.0000
    149 H          17.0701    4.4756   -1.6064 H         1 TYR         0.0000
    150 H          13.7190    2.1961   -3.0787 H         1 TYR         0.0000
    151 H          15.6028    1.0679   -2.1839 H         1 TYR         0.0000
    152 H          16.9163    1.9607   -1.3447 H         1 TYR         0.0000
    153 H          18.1470    2.2877   -3.3700 H         1 TYR         0.0000
    154 H          15.8996   -0.1084   -4.8294 H         1 LEU         0.0000
    155 H          16.7658   -2.3985   -2.4077 H         1 LEU         0.0000
    156 H          16.7608   -3.8342   -3.4873 H         1 LEU         0.0000
    157 H          15.3543   -2.7170   -3.4720 H         1 LEU         0.0000
    158 H          18.1940   -1.9914   -4.4239 H         1 LEU         0.0000
@<TRIPOS>BOND
     1    1    3 2
     2    2    4 1
     3    2   88 1
     4    2   89 1
     5    2   90 1
     6    3    4 1
     7    3    8 am
     8    4   91 1
     9    4   92 1
    10    5    9 2
    11    6   11 ar
    12    7   11 ar
    13    8   12 1
    14    8   93 1
    15    9   12 1
    16    9   14 am
    17   10   11 1
    18   10   12 1
    19   10   94 1
    20   10   95 1
    21   12   96 1
    22   13   15 2
    23   14   22 1
    24   14   97 1
    25   15   22 1
    26   15   27 am
    27   16   17 ar
    28   16   18 ar
    29   16   98 1
    30   17   19 ar
    31   17   99 1
    32   18   20 ar
    33   18  100 1
    34   19   23 ar
    35   19  101 1
    36   20   23 ar
    37   20  102 1
    38   21   22 1
    39   21   23 1
    40   21  103 1
    41   21  104 1
    42   22  105 1
    43   24   28 2
    44   25   31 ar
    45   26   31 ar
    46   27   32 1
    47   27  106 1
    48   28   32 1
    49   28   36 am
    50   29   30 1
    51   29   31 1
    52   29  107 1
    53   29  108 1
    54   30   32 1
    55   30  109 1
    56   30  110 1
    57   32  111 1
    58   33   37 2
    59   34   40 ar
    60   35   40 ar
    61   36   41 1
    62   36  112 1
    63   37   41 1
    64   37   43 am
    65   38   39 1
    66   38   40 1
    67   38  113 1
    68   38  114 1
    69   39   41 1
    70   39  115 1
    71   39  116 1
    72   41  117 1
    73   42   46 2
    74   43   48 1
    75   43  118 1
    76   44   47 1
    77   44  119 1
    78   44  120 1
    79   44  121 1
    80   45   49 1
    81   45  122 1
    82   45  123 1
    83   45  124 1
    84   46   48 1
    85   46   51 am
    86   47   49 1
    87   47  125 1
    88   47  126 1
    89   48   49 1
    90   48  127 1
    91   49  128 1
    92   50   52 2
    93   51   53 1
    94   51   56 1
    95   52   56 1
    96   52   58 am
    97   53   54 1
    98   53  129 1
    99   53  130 1
   100   54   55 1
   101   54  131 1
   102   54  132 1
   103   55   56 1
   104   55  133 1
   105   55  134 1
   106   56  135 1
   107   57   59 2
   108   58   60 1
   109   58  136 1
   110   59   60 1
   111   59   64 am
   112   60  137 1
   113   60  138 1
   114   61   65 2
   115   62   68 ar
   116   63   68 ar
   117   64   69 1
   118   64  139 1
   119   65   69 1
   120   65   72 am
   121   66   67 1
   122   66   68 1
   123   66  140 1
   124   66  141 1
   125   67   69 1
   126   67  142 1
   127   67  143 1
   128   69  144 1
   129   70   73 2
   130   71   79 1
   131   71  145 1
   132   72   80 1
   133   72  146 1
   134   73   80 1
   135   73   84 am
   136   74   76 ar
   137   74   79 ar
   138   74  147 1
   139   75   77 ar
   140   75   79 ar
   141   75  148 1
   142   76   81 ar
   143   76  149 1
   144   77   81 ar
   145   77  150 1
   146   78   80 1
   147   78   81 1
   148   78  151 1
   149   78  152 1
   150   80  153 1
   151   82   86 ar
   152   83   86 ar
   153   84   87 1
   154   84  154 1
   155   85   87 1
   156   85  155 1
   157   85  156 1
   158   85  157 1
   159   86   87 1
   160   87  158 1

