1a1e_ligand
Version: PDBbind v2024

 73 74  0  0  1  0            999 V2000
   40.9820    8.6460   25.0400 O   0  0  0  0  0  0
   41.4740    6.5550   26.0930 C   0  0  0  0  0  0
   41.3690    7.4800   24.9070 C   0  0  0  0  0  0
   41.0583    7.0508   26.9826 H   0  0  0  0  0  0
   42.5306    6.3065   26.2718 H   0  0  0  0  0  0
   40.9098    5.6329   25.8898 H   0  0  0  0  0  0
   47.3440   10.2050   26.1840 P   0  0  0  0  0  0
   47.4820    8.9580   26.9400 O   0  0  0  0  0  0
   48.5250   11.0850   26.3010 O   0  5  0  0  0  0
   46.0240   10.8930   26.3390 O   0  5  0  0  0  0
   40.0510    6.1860   21.8890 O   0  0  0  0  0  0
   47.3620    9.7490   24.6990 O   0  0  0  0  0  0
   41.8380    6.9940   23.7740 N   0  0  0  0  0  0
   40.5630    7.2990   21.7540 C   0  0  0  0  0  0
   45.8430    7.9100   24.3220 C   0  0  0  0  0  0
   45.6190    9.9110   23.0240 C   0  0  0  0  0  0
   44.8240    7.3560   23.5890 C   0  0  0  0  0  0
   44.5990    9.3540   22.2980 C   0  0  0  0  0  0
   43.0710    7.4600   21.7830 C   0  0  0  0  0  0
   46.2370    9.1890   24.0260 C   0  0  0  0  0  0
   41.7820    7.7280   22.5370 C   0  0  2  0  0  0
   44.2050    8.0760   22.5800 C   0  0  0  0  0  0
   42.2843    5.9889   23.7974 H   0  0  0  0  0  0
   46.2872    7.3935   25.0540 H   0  0  0  0  0  0
   45.9174   10.8450   22.8273 H   0  0  0  0  0  0
   44.5248    6.4222   23.7852 H   0  0  0  0  0  0
   44.1495    9.8750   21.5724 H   0  0  0  0  0  0
   43.2182    6.3745   21.6828 H   0  0  0  0  0  0
   43.0128    7.9159   20.7836 H   0  0  0  0  0  0
   41.6876    8.8006   22.7619 H   0  0  0  0  0  0
   40.4410    7.3880   18.4860 O   0  0  0  0  0  0
   35.7520    9.2990   20.9090 O   0  0  0  0  0  0
   36.8630    9.4320   22.7300 O   0  5  0  0  0  0
   40.0610    8.2540   21.0110 N   0  0  0  0  0  0
   39.3040    7.2140   18.9600 C   0  0  0  0  0  0
   37.9020   10.2660   20.8130 C   0  0  0  0  0  0
   38.4570    9.4160   19.7030 C   0  0  0  0  0  0
   36.7520    9.6170   21.5340 C   0  0  0  0  0  0
   38.9280    8.0690   20.1640 C   0  0  2  0  0  0
   40.5556    9.2352   21.0614 H   0  0  0  0  0  0
   38.6912   10.4631   21.5535 H   0  0  0  0  0  0
   37.5409   11.2192   20.3994 H   0  0  0  0  0  0
   37.6790    9.2519   18.9428 H   0  0  0  0  0  0
   39.3160    9.9273   19.2440 H   0  0  0  0  0  0
   38.1591    7.5675   20.7700 H   0  0  0  0  0  0
   38.4240    6.3320   18.3700 N   0  0  0  0  0  0
   38.3370   10.6440   13.2830 C   0  0  0  0  0  0
   37.0660    6.0610   18.8800 C   0  0  0  0  0  0
   38.6700    5.7690   17.0470 C   0  0  0  0  0  0
   38.9830    9.7810   14.3310 C   0  0  0  0  0  0
   36.1180    6.8590   17.9570 C   0  0  0  0  0  0
   37.9560    8.7180   14.5270 C   0  0  0  0  0  0
   36.3600    6.5540   16.4700 C   0  0  0  0  0  0
   38.4430    7.9210   15.7220 C   0  0  0  0  0  0
   37.8230    6.5490   16.0190 C   0  0  1  0  0  0
   39.0026   11.4852   13.0395 H   0  0  0  0  0  0
   37.3811   11.0315   13.6653 H   0  0  0  0  0  0
   38.1547   10.0467   12.3775 H   0  0  0  0  0  0
   36.8641    4.9809   18.8293 H   0  0  0  0  0  0
   36.9921    6.3992   19.9241 H   0  0  0  0  0  0
   39.7383    5.8620   16.8018 H   0  0  0  0  0  0
   38.3837    4.7069   17.0414 H   0  0  0  0  0  0
   39.9389    9.3935   13.9487 H   0  0  0  0  0  0
   39.1654   10.3783   15.2365 H   0  0  0  0  0  0
   35.0747    6.6019   18.1925 H   0  0  0  0  0  0
   36.2745    7.9364   18.1140 H   0  0  0  0  0  0
   36.9783    9.1838   14.7197 H   0  0  0  0  0  0
   37.8940    8.0966   13.6214 H   0  0  0  0  0  0
   35.9618    5.5569   16.2307 H   0  0  0  0  0  0
   35.8514    7.3096   15.8532 H   0  0  0  0  0  0
   39.5177    7.7142   15.6114 H   0  0  0  0  0  0
   38.2737    8.4994   16.6422 H   0  0  0  0  0  0
   37.8197    6.0531   15.0371 H   0  0  0  0  0  0
  1  3  2  0  0  0
  2  3  1  0  0  0
  2  4  1  0  0  0
  2  5  1  0  0  0
  2  6  1  0  0  0
  3 13  1  0  0  0
  7  8  2  0  0  0
  7  9  1  0  0  0
  7 10  1  0  0  0
  7 12  1  0  0  0
 11 14  2  0  0  0
 12 20  1  0  0  0
 13 21  1  0  0  0
 13 23  1  0  0  0
 14 21  1  0  0  0
 14 34  1  0  0  0
 15 17  2  0  0  0
 15 20  1  0  0  0
 15 24  1  0  0  0
 16 18  1  0  0  0
 16 20  2  0  0  0
 16 25  1  0  0  0
 17 22  1  0  0  0
 17 26  1  0  0  0
 18 22  2  0  0  0
 18 27  1  0  0  0
 19 21  1  0  0  0
 19 22  1  0  0  0
 19 29  1  0  0  0
 19 28  1  0  0  0
 21 30  1  0  0  0
 31 35  2  0  0  0
 32 38  2  0  0  0
 33 38  1  0  0  0
 34 39  1  0  0  0
 34 40  1  0  0  0
 35 39  1  0  0  0
 35 46  1  0  0  0
 36 37  1  0  0  0
 36 38  1  0  0  0
 36 41  1  0  0  0
 36 42  1  0  0  0
 37 39  1  0  0  0
 37 44  1  0  0  0
 37 43  1  0  0  0
 39 45  1  0  0  0
 46 48  1  0  0  0
 46 49  1  0  0  0
 47 50  1  0  0  0
 47 56  1  0  0  0
 47 57  1  0  0  0
 47 58  1  0  0  0
 48 51  1  0  0  0
 48 59  1  0  0  0
 48 60  1  0  0  0
 49 55  1  0  0  0
 49 61  1  0  0  0
 49 62  1  0  0  0
 50 52  1  0  0  0
 50 63  1  0  0  0
 50 64  1  0  0  0
 51 53  1  0  0  0
 51 65  1  0  0  0
 51 66  1  0  0  0
 52 54  1  0  0  0
 52 67  1  0  0  0
 52 68  1  0  0  0
 53 70  1  0  0  0
 53 69  1  0  0  0
 53 55  1  0  0  0
 54 71  1  0  0  0
 54 55  1  0  0  0
 54 72  1  0  0  0
 55 73  1  0  0  0
M  END
$$$$