#    Name:    1a1e_ligand
#    Version:    PDBbind v2024

@<TRIPOS>MOLECULE
1a1e_ligand
   73    74     1     0     0
SMALL
USER_CHARGES

@<TRIPOS>ATOM
      1 O          40.9820    8.6460   25.0400 O.2       1 ACE         0.0000
      2 CH3        41.4740    6.5550   26.0930 C.3       1 ACE         0.0000
      3 C          41.3690    7.4800   24.9070 C.2       1 ACE         0.0000
      4 P          47.3440   10.2050   26.1840 P.3       1 PTR         0.0000
      5 O1P        47.4820    8.9580   26.9400 O.co2     1 PTR        -0.6667
      6 O2P        48.5250   11.0850   26.3010 O.co2     1 PTR        -0.6667
      7 O3P        46.0240   10.8930   26.3390 O.co2     1 PTR        -0.6667
      8 O          40.0510    6.1860   21.8890 O.2       1 PTR         0.0000
      9 OH         47.3620    9.7490   24.6990 O.3       1 PTR         0.0000
     10 N          41.8380    6.9940   23.7740 N.am      1 PTR         0.0000
     11 C          40.5630    7.2990   21.7540 C.2       1 PTR         0.0000
     12 CE1        45.8430    7.9100   24.3220 C.ar      1 PTR         0.0000
     13 CE2        45.6190    9.9110   23.0240 C.ar      1 PTR         0.0000
     14 CD1        44.8240    7.3560   23.5890 C.ar      1 PTR         0.0000
     15 CD2        44.5990    9.3540   22.2980 C.ar      1 PTR         0.0000
     16 CB         43.0710    7.4600   21.7830 C.3       1 PTR         0.0000
     17 CZ         46.2370    9.1890   24.0260 C.ar      1 PTR         0.0000
     18 CA         41.7820    7.7280   22.5370 C.3       1 PTR         0.0000
     19 CG         44.2050    8.0760   22.5800 C.ar      1 PTR         0.0000
     20 O          40.4410    7.3880   18.4860 O.2       1 GLU         0.0000
     21 OE1        35.7520    9.2990   20.9090 O.co2     1 GLU        -0.5000
     22 OE2        36.8630    9.4320   22.7300 O.co2     1 GLU        -0.5000
     23 N          40.0610    8.2540   21.0110 N.am      1 GLU         0.0000
     24 C          39.3040    7.2140   18.9600 C.2       1 GLU         0.0000
     25 CG         37.9020   10.2660   20.8130 C.3       1 GLU         0.0000
     26 CB         38.4570    9.4160   19.7030 C.3       1 GLU         0.0000
     27 CD         36.7520    9.6170   21.5340 C.2       1 GLU         0.0000
     28 CA         38.9280    8.0690   20.1640 C.3       1 GLU         0.0000
     29 N1         38.4240    6.3320   18.3700 N.am      1 DIY         0.0000
     30 C4'        38.3370   10.6440   13.2830 C.3       1 DIY         0.0000
     31 C2         37.0660    6.0610   18.8800 C.3       1 DIY         0.0000
     32 C6         38.6700    5.7690   17.0470 C.3       1 DIY         0.0000
     33 C3'        38.9830    9.7810   14.3310 C.3       1 DIY         0.0000
     34 C3         36.1180    6.8590   17.9570 C.3       1 DIY         0.0000
     35 C2'        37.9560    8.7180   14.5270 C.3       1 DIY         0.0000
     36 C4         36.3600    6.5540   16.4700 C.3       1 DIY         0.0000
     37 C1'        38.4430    7.9210   15.7220 C.3       1 DIY         0.0000
     38 C5         37.8230    6.5490   16.0190 C.3       1 DIY         0.0000
     39 H          41.0583    7.0508   26.9826 H         1 ACE         0.0000
     40 H          42.5306    6.3065   26.2718 H         1 ACE         0.0000
     41 H          40.9098    5.6329   25.8898 H         1 ACE         0.0000
     42 H          42.2843    5.9889   23.7974 H         1 PTR         0.0000
     43 H          46.3272    7.3470   25.1199 H         1 PTR         0.0000
     44 H          45.9442   10.9290   22.8096 H         1 PTR         0.0000
     45 H          44.4978    6.3382   23.8029 H         1 PTR         0.0000
     46 H          44.1090    9.9219   21.5071 H         1 PTR         0.0000
     47 H          43.2182    6.3745   21.6828 H         1 PTR         0.0000
     48 H          43.0128    7.9159   20.7836 H         1 PTR         0.0000
     49 H          41.6876    8.8006   22.7619 H         1 PTR         0.0000
     50 H          40.5556    9.2352   21.0614 H         1 GLU         0.0000
     51 H          38.6912   10.4631   21.5535 H         1 GLU         0.0000
     52 H          37.5409   11.2192   20.3994 H         1 GLU         0.0000
     53 H          37.6790    9.2519   18.9428 H         1 GLU         0.0000
     54 H          39.3160    9.9273   19.2440 H         1 GLU         0.0000
     55 H          38.1591    7.5675   20.7700 H         1 GLU         0.0000
     56 H          39.0026   11.4852   13.0395 H         1 DIY         0.0000
     57 H          37.3811   11.0315   13.6653 H         1 DIY         0.0000
     58 H          38.1547   10.0467   12.3775 H         1 DIY         0.0000
     59 H          36.8641    4.9809   18.8293 H         1 DIY         0.0000
     60 H          36.9921    6.3992   19.9241 H         1 DIY         0.0000
     61 H          39.7383    5.8620   16.8018 H         1 DIY         0.0000
     62 H          38.3837    4.7069   17.0414 H         1 DIY         0.0000
     63 H          39.9389    9.3935   13.9487 H         1 DIY         0.0000
     64 H          39.1654   10.3783   15.2365 H         1 DIY         0.0000
     65 H          35.0747    6.6019   18.1925 H         1 DIY         0.0000
     66 H          36.2745    7.9364   18.1140 H         1 DIY         0.0000
     67 H          36.9783    9.1838   14.7197 H         1 DIY         0.0000
     68 H          37.8940    8.0966   13.6214 H         1 DIY         0.0000
     69 H          35.9618    5.5569   16.2307 H         1 DIY         0.0000
     70 H          35.8514    7.3096   15.8532 H         1 DIY         0.0000
     71 H          39.5177    7.7142   15.6114 H         1 DIY         0.0000
     72 H          38.2737    8.4994   16.6422 H         1 DIY         0.0000
     73 H          37.8197    6.0531   15.0371 H         1 DIY         0.0000
@<TRIPOS>BOND
     1    1    3 2
     2    2    3 1
     3    2   39 1
     4    2   40 1
     5    2   41 1
     6    3   10 am
     7    4    5 ar
     8    4    6 ar
     9    4    7 ar
    10    4    9 1
    11    8   11 2
    12    9   17 1
    13   10   18 1
    14   10   42 1
    15   11   18 1
    16   11   23 am
    17   12   14 ar
    18   12   17 ar
    19   12   43 1
    20   13   15 ar
    21   13   17 ar
    22   13   44 1
    23   14   19 ar
    24   14   45 1
    25   15   19 ar
    26   15   46 1
    27   16   18 1
    28   16   19 1
    29   16   47 1
    30   16   48 1
    31   18   49 1
    32   20   24 2
    33   21   27 ar
    34   22   27 ar
    35   23   28 1
    36   23   50 1
    37   24   28 1
    38   24   29 am
    39   25   26 1
    40   25   27 1
    41   25   51 1
    42   25   52 1
    43   26   28 1
    44   26   53 1
    45   26   54 1
    46   28   55 1
    47   29   31 1
    48   29   32 1
    49   30   33 1
    50   30   56 1
    51   30   57 1
    52   30   58 1
    53   31   34 1
    54   31   59 1
    55   31   60 1
    56   32   38 1
    57   32   61 1
    58   32   62 1
    59   33   35 1
    60   33   63 1
    61   33   64 1
    62   34   36 1
    63   34   65 1
    64   34   66 1
    65   35   37 1
    66   35   67 1
    67   35   68 1
    68   36   38 1
    69   36   69 1
    70   36   70 1
    71   37   38 1
    72   37   71 1
    73   37   72 1
    74   38   73 1

