#    Name:    1a4h_ligand
#    Version:    PDBbind v2024

@<TRIPOS>MOLECULE
1a4h_ligand
   80    81     1     0     0
SMALL
USER_CHARGES

@<TRIPOS>ATOM
      1 O4         19.8210   -3.2570   -5.7130 O.co2     1 GDM         0.0000
      2 O1         11.8980   -4.1060   -0.0770 O.2       1 GDM         0.0000
      3 O8         13.2010   -6.3020   -6.5970 O.2       1 GDM         0.0000
      4 O5         14.6760   -1.0450   -9.5010 O.3       1 GDM         0.0000
      5 O9         10.4770   -2.6280   -3.8990 O.2       1 GDM         0.0000
      6 O2         18.3160   -2.7340   -2.3380 O.3       1 GDM         0.0000
      7 O6         14.5630    1.4480   -7.6390 O.3       1 GDM         0.0000
      8 O7         11.4380   -4.4140   -8.2560 O.3       1 GDM         0.0000
      9 O3         18.3060   -4.3960   -4.5700 O.3       1 GDM         0.0000
     10 N2         20.4610   -5.0930   -4.8510 N.am      1 GDM         0.0000
     11 N1         11.4190   -4.6210   -2.3080 N.am      1 GDM         0.0000
     12 C23        18.5220   -2.7580   -0.9420 C.3       1 GDM         0.0000
     13 C27        15.1580    2.2530   -6.6380 C.3       1 GDM         0.0000
     14 C29        10.6420   -5.3620   -9.1330 C.3       1 GDM         0.0000
     15 C28        12.3020    0.2910   -5.0710 C.3       1 GDM         0.0000
     16 C22        12.0120   -1.0670   -0.6620 C.3       1 GDM         0.0000
     17 C26        17.2630   -2.2560   -8.6650 C.3       1 GDM         0.0000
     18 C25        15.7880   -4.5240   -5.3980 C.3       1 GDM         0.0000
     19 C4         14.9020   -1.4030   -2.2370 C.2       1 GDM         0.0000
     20 C5         16.1950   -1.7270   -2.5680 C.2       1 GDM         0.0000
     21 C3         13.8180   -2.4080   -2.0340 C.2       1 GDM         0.0000
     22 C19        12.2040   -5.6850   -4.5400 C.2       1 GDM         0.0000
     23 C13        12.9420   -0.2680   -7.5260 C.3       1 GDM         0.0000
     24 C15        11.2230   -1.8470   -6.5040 C.3       1 GDM         0.0000
     25 C9         16.6800   -2.3600   -6.4830 C.2       1 GDM         0.0000
     26 C24        19.5210   -4.1680   -5.0030 C.2       1 GDM         0.0000
     27 C1         11.9460   -3.7710   -1.2720 C.2       1 GDM         0.0000
     28 C18        12.4560   -5.5300   -6.0180 C.2       1 GDM         0.0000
     29 C11        15.4340   -0.6540   -8.3270 C.3       1 GDM         0.0000
     30 C21        11.0800   -3.4780   -4.5510 C.2       1 GDM         0.0000
     31 C6         17.0050   -3.0090   -2.8250 C.3       1 GDM         0.0000
     32 C12        14.4320    0.0620   -7.3810 C.3       1 GDM         0.0000
     33 C17        11.7230   -4.3680   -6.8230 C.2       1 GDM         0.0000
     34 C7         17.4520   -3.2520   -4.2950 C.3       1 GDM         0.0000
     35 C20        11.5380   -4.7180   -3.8510 C.2       1 GDM         0.0000
     36 C14        12.3710   -0.8080   -6.1990 C.3       1 GDM         0.0000
     37 C2         12.5870   -2.3550   -1.4050 C.2       1 GDM         0.0000
     38 C10        16.0410   -1.9750   -7.8000 C.3       1 GDM         0.0000
     39 C8         16.4810   -3.2080   -5.4570 C.2       1 GDM         0.0000
     40 C16        11.3620   -3.2860   -6.0250 C.2       1 GDM         0.0000
     41 H          14.1312   -0.2861  -10.0818 H         1 GDM         0.0000
     42 H          21.4822   -4.9042   -5.2137 H         1 GDM         0.0000
     43 H          20.2187   -6.0483   -4.3624 H         1 GDM         0.0000
     44 H          10.7449   -5.4507   -2.0488 H         1 GDM         0.0000
     45 H          19.5752   -2.5283   -0.7228 H         1 GDM         0.0000
     46 H          18.2757   -3.7567   -0.5522 H         1 GDM         0.0000
     47 H          17.8757   -2.0077   -0.4631 H         1 GDM         0.0000
     48 H          15.1906    3.2982   -6.9794 H         1 GDM         0.0000
     49 H          16.1810    1.8989   -6.4428 H         1 GDM         0.0000
     50 H          14.5647    2.1874   -5.7140 H         1 GDM         0.0000
     51 H          10.6876   -5.0206  -10.1777 H         1 GDM         0.0000
     52 H           9.5943   -5.3788   -8.7981 H         1 GDM         0.0000
     53 H          11.0669   -6.3739   -9.0591 H         1 GDM         0.0000
     54 H          13.2318    0.8788   -5.0744 H         1 GDM         0.0000
     55 H          12.1793   -0.1955   -4.0921 H         1 GDM         0.0000
     56 H          11.4467    0.9566   -5.2594 H         1 GDM         0.0000
     57 H          12.6316   -0.1929   -0.9111 H         1 GDM         0.0000
     58 H          12.0310   -1.2320    0.4254 H         1 GDM         0.0000
     59 H          10.9768   -0.8875   -0.9876 H         1 GDM         0.0000
     60 H          17.7394   -3.1906   -8.3341 H         1 GDM         0.0000
     61 H          17.9785   -1.4260   -8.5695 H         1 GDM         0.0000
     62 H          16.9535   -2.3543   -9.7160 H         1 GDM         0.0000
     63 H          15.0527   -4.5881   -6.2137 H         1 GDM         0.0000
     64 H          15.2728   -4.6241   -4.4313 H         1 GDM         0.0000
     65 H          16.5263   -5.3323   -5.5055 H         1 GDM         0.0000
     66 H          14.6153   -0.3491   -2.1063 H         1 GDM         0.0000
     67 H          16.9411   -0.9320   -2.7138 H         1 GDM         0.0000
     68 H          14.1521   -3.3411   -2.5112 H         1 GDM         0.0000
     69 H          12.5612   -6.5851   -4.0182 H         1 GDM         0.0000
     70 H          12.3906    0.6417   -7.8060 H         1 GDM         0.0000
     71 H          12.8098   -1.0317   -8.3065 H         1 GDM         0.0000
     72 H          10.2842   -1.5007   -6.0471 H         1 GDM         0.0000
     73 H          11.0897   -1.9372   -7.5922 H         1 GDM         0.0000
     74 H          17.5467   -1.6827   -6.4765 H         1 GDM         0.0000
     75 H          16.2508    0.0516   -8.5388 H         1 GDM         0.0000
     76 H          16.4177   -3.8231   -2.3752 H         1 GDM         0.0000
     77 H          14.7054   -0.1984   -6.3478 H         1 GDM         0.0000
     78 H          18.0564   -2.3336   -4.3304 H         1 GDM         0.0000
     79 H          13.0707   -1.4579   -5.6531 H         1 GDM         0.0000
     80 H          15.0674   -2.4836   -7.7418 H         1 GDM         0.0000
@<TRIPOS>BOND
     1    1   26 ar
     2    2   27 2
     3    3   28 2
     4    4   29 1
     5    4   41 1
     6    5   30 2
     7    6   12 1
     8    6   31 1
     9    7   13 1
    10    7   32 1
    11    8   14 1
    12    8   33 1
    13    9   26 1
    14    9   34 1
    15   10   26 am
    16   10   42 1
    17   10   43 1
    18   11   27 am
    19   11   35 1
    20   11   44 1
    21   12   45 1
    22   12   46 1
    23   12   47 1
    24   13   48 1
    25   13   49 1
    26   13   50 1
    27   14   51 1
    28   14   52 1
    29   14   53 1
    30   15   36 1
    31   15   54 1
    32   15   55 1
    33   15   56 1
    34   16   37 1
    35   16   57 1
    36   16   58 1
    37   16   59 1
    38   17   38 1
    39   17   60 1
    40   17   61 1
    41   17   62 1
    42   18   39 1
    43   18   63 1
    44   18   64 1
    45   18   65 1
    46   19   20 2
    47   19   21 1
    48   19   66 1
    49   20   31 1
    50   20   67 1
    51   21   37 2
    52   21   68 1
    53   22   28 1
    54   22   35 2
    55   22   69 1
    56   23   32 1
    57   23   36 1
    58   23   70 1
    59   23   71 1
    60   24   36 1
    61   24   40 1
    62   24   72 1
    63   24   73 1
    64   25   38 1
    65   25   39 2
    66   25   74 1
    67   27   37 1
    68   28   33 1
    69   29   32 1
    70   29   38 1
    71   29   75 1
    72   30   35 1
    73   30   40 1
    74   31   34 1
    75   31   76 1
    76   32   77 1
    77   33   40 2
    78   34   39 1
    79   34   78 1
    80   36   79 1
    81   38   80 1

