#    Name:    2clx_ligand
#    Version:    PDBbind v2024

@<TRIPOS>MOLECULE
2clx_ligand
   26    27     1     0     0
SMALL
USER_CHARGES

@<TRIPOS>ATOM
      1 C3         23.7680   30.7400   10.4770 C.ar      1 F18         0.0000
      2 C6         24.5630   31.3440    9.5070 C.ar      1 F18         0.0000
      3 C2         25.6130   30.6820    8.8890 C.ar      1 F18         0.0000
      4 O3         22.7460   31.4000   11.0880 O.3       1 F18         0.0000
      5 C5         25.8460   29.3760    9.3070 C.ar      1 F18         0.0000
      6 C4         25.0650   28.7730   10.2850 C.ar      1 F18         0.0000
      7 C1         24.0150   29.4400   10.8800 C.ar      1 F18         0.0000
      8 N9         26.7560   28.5340    8.8590 N.2       1 F18         0.0000
      9 N13        27.6960   28.6120    8.0750 N.2       1 F18         0.0000
     10 C14        28.2820   29.5600    7.3460 C.2       1 F18         0.0000
     11 C19        28.1350   30.9030    6.9920 C.2       1 F18         0.0000
     12 N16        27.2620   31.8370    7.3420 N.pl3     1 F18         0.0000
     13 N20        29.1580   31.1640    6.2020 N.2       1 F18         1.0000
     14 N17        29.9000   30.1950    5.9980 N.pl3     1 F18         0.0000
     15 C15        29.4310   29.1640    6.6850 C.2       1 F18         0.0000
     16 N18        29.9900   27.9590    6.7150 N.pl3     1 F18         0.0000
     17 H          24.3536   32.3694    9.2244 H         1 F18         0.0000
     18 H          26.2177   31.1552    8.1238 H         1 F18         0.0000
     19 H          22.5110   32.4358   10.8016 H         1 F18         0.0000
     20 H          25.2859   27.7556   10.5870 H         1 F18         0.0000
     21 H          23.4042   28.9621   11.6374 H         1 F18         0.0000
     22 H          26.4202   31.5831    8.0030 H         1 F18         0.0000
     23 H          27.3793   32.8660    6.9714 H         1 F18         0.0000
     24 H          30.7721   30.2999    5.3359 H         1 F18         0.0000
     25 H          29.5344   27.1561    7.3131 H         1 F18         0.0000
     26 H          30.9084   27.7643    6.1417 H         1 F18         0.0000
@<TRIPOS>BOND
     1    1    2 ar
     2    1    4 1
     3    1    7 ar
     4    2    3 ar
     5    2   17 1
     6    3    5 ar
     7    3   18 1
     8    4   19 1
     9    5    6 ar
    10    5    8 1
    11    6    7 ar
    12    6   20 1
    13    7   21 1
    14    8    9 2
    15    9   10 1
    16   10   11 1
    17   10   15 2
    18   11   12 1
    19   11   13 2
    20   12   22 1
    21   12   23 1
    22   13   14 1
    23   14   15 1
    24   14   24 1
    25   15   16 1
    26   16   25 1
    27   16   26 1

