2clx_ligand
Version: PDBbind v2024

 27 28  0  0  1  0            999 V2000
   22.7460   31.4000   11.0880 O   0  0  0  0  0  0
   27.2620   31.8370    7.3420 N   0  0  0  0  0  0
   29.9900   27.9590    6.7150 N   0  0  0  0  0  0
   29.1580   31.1640    6.2020 N   0  3  0  0  0  0
   29.9000   30.1950    5.9980 N   0  0  0  0  0  0
   26.7560   28.5340    8.8590 N   0  0  0  0  0  0
   27.6960   28.6120    8.0750 N   0  0  0  0  0  0
   24.5630   31.3440    9.5070 C   0  0  0  0  0  0
   24.0150   29.4400   10.8800 C   0  0  0  0  0  0
   25.6130   30.6820    8.8890 C   0  0  0  0  0  0
   25.0650   28.7730   10.2850 C   0  0  0  0  0  0
   23.7680   30.7400   10.4770 C   0  0  0  0  0  0
   28.1350   30.9030    6.9920 C   0  0  0  0  0  0
   29.4310   29.1640    6.6850 C   0  0  0  0  0  0
   25.8460   29.3760    9.3070 C   0  0  0  0  0  0
   28.2820   29.5600    7.3460 C   0  0  0  0  0  0
   22.5110   32.4358   10.8016 H   0  0  0  0  0  0
   27.3448   32.8514    6.9247 H   0  0  0  0  0  0
   26.4547   31.5977    8.0498 H   0  0  0  0  0  0
   30.9095   27.7649    6.1434 H   0  0  0  0  0  0
   29.5333   27.1555    7.3115 H   0  0  0  0  0  0
   29.3821   32.1357    5.7376 H   0  0  0  0  0  0
   24.3698   32.2899    9.2463 H   0  0  0  0  0  0
   23.4516   28.9991   11.5787 H   0  0  0  0  0  0
   26.1708   31.1186    8.1831 H   0  0  0  0  0  0
   25.2688   27.8345   10.5636 H   0  0  0  0  0  0
   30.7721   30.2999    5.3359 H   0  0  0  0  0  0
  1 12  1  0  0  0
  1 17  1  0  0  0
  2 13  1  0  0  0
  2 18  1  0  0  0
  2 19  1  0  0  0
  3 14  1  0  0  0
  3 20  1  0  0  0
  3 21  1  0  0  0
  4  5  1  0  0  0
  4 13  2  0  0  0
  4 22  1  0  0  0
  5 14  1  0  0  0
  6  7  2  0  0  0
  6 15  1  0  0  0
  7 16  1  0  0  0
  8 10  1  0  0  0
  8 12  2  0  0  0
  8 23  1  0  0  0
  9 11  2  0  0  0
  9 12  1  0  0  0
  9 24  1  0  0  0
 10 15  2  0  0  0
 10 25  1  0  0  0
 11 15  1  0  0  0
 11 26  1  0  0  0
 13 16  1  0  0  0
 14 16  2  0  0  0
  5 27  1  0  0  0
M  END
$$$$