1a4q_ligand
Version: PDBbind v2024

 55 56  0  0  1  0            999 V2000
   -3.3710   59.0640   -5.3230 O   0  0  0  0  0  0
   -1.5990   58.1890   -4.5610 O   0  5  0  0  0  0
   -1.5630   56.1000  -11.8890 O   0  0  0  0  0  0
   -3.7430   58.2630   -9.9970 O   0  0  0  0  0  0
   -3.2930   57.6710   -7.5870 O   0  0  0  0  0  0
   -0.0140   55.4590   -8.4300 N   0  3  0  0  0  0
   -2.4990   55.1260  -10.1100 N   0  0  0  0  0  0
   -5.3800   57.0300  -10.1910 N   0  0  0  0  0  0
   -7.8370   57.4310   -8.6020 C   0  0  0  0  0  0
   -2.4430   53.8710  -12.2170 C   0  0  0  0  0  0
   -6.0810   55.8520   -9.6850 C   0  0  0  0  0  0
   -5.9710   57.8100  -11.3010 C   0  0  0  0  0  0
   -6.9620   56.1710   -8.4650 C   0  0  0  0  0  0
   -7.2490   59.9920  -15.6230 C   0  0  0  0  0  0
   -6.2020   60.4850  -14.8230 C   0  0  0  0  0  0
   -7.6510   58.6560  -15.4900 C   0  0  0  0  0  0
   -5.3950   57.4170  -12.6650 C   0  0  0  0  0  0
   -5.5860   59.6390  -13.8840 C   0  0  0  0  0  0
   -7.0380   57.8160  -14.5550 C   0  0  0  0  0  0
   -1.4120   56.5180   -6.7960 C   0  0  0  0  0  0
   -2.4160   58.3090   -5.4640 C   0  0  0  0  0  0
   -2.1370   55.1410  -11.4020 C   0  0  0  0  0  0
   -4.2550   57.5050   -9.6740 C   0  0  0  0  0  0
   -2.3440   57.4690   -6.6730 C   0  0  0  0  0  0
   -3.5280   56.7290   -8.5990 C   0  0  1  0  0  0
   -1.3790   55.6270   -8.0080 C   0  0  1  0  0  0
   -2.2120   56.1910   -9.1560 C   0  0  1  0  0  0
   -6.0130   58.3010  -13.7300 C   0  0  0  0  0  0
    0.5796   55.0525   -7.5979 H   0  0  0  0  0  0
    0.3984   56.4326   -8.7334 H   0  0  0  0  0  0
   -3.0493   54.2305   -9.7855 H   0  0  0  0  0  0
   -8.4251   57.5707   -7.6829 H   0  0  0  0  0  0
   -8.5173   57.3136   -9.4584 H   0  0  0  0  0  0
   -7.1935   58.3086   -8.7625 H   0  0  0  0  0  0
   -2.1002   54.0088  -13.2531 H   0  0  0  0  0  0
   -3.5270   53.6840  -12.2112 H   0  0  0  0  0  0
   -1.9204   53.0130  -11.7689 H   0  0  0  0  0  0
   -6.7296   55.4442  -10.4743 H   0  0  0  0  0  0
   -5.3472   55.0901   -9.3834 H   0  0  0  0  0  0
   -7.0575   57.6405  -11.3304 H   0  0  0  0  0  0
   -5.7710   58.8802  -11.1443 H   0  0  0  0  0  0
   -6.2817   56.2884   -7.6086 H   0  0  0  0  0  0
   -7.6055   55.2934   -8.3044 H   0  0  0  0  0  0
   -7.7035   60.5910  -16.2823 H   0  0  0  0  0  0
   -5.8974   61.4324  -14.9217 H   0  0  0  0  0  0
   -8.3838   58.2997  -16.0697 H   0  0  0  0  0  0
   -4.3035   57.5532  -12.6551 H   0  0  0  0  0  0
   -5.6310   56.3629  -12.8728 H   0  0  0  0  0  0
   -4.8380   59.9879  -13.3194 H   0  0  0  0  0  0
   -7.3324   56.8637  -14.4742 H   0  0  0  0  0  0
   -0.6588   56.3807   -6.0062 H   0  0  0  0  0  0
   -4.1064   55.9007   -8.1638 H   0  0  0  0  0  0
   -1.7639   54.6342   -7.7318 H   0  0  0  0  0  0
   -1.6591   56.9743   -9.6952 H   0  0  0  0  0  0
    0.0236   54.7635   -9.2814 H   0  0  0  0  0  0
  1 21  2  0  0  0
  2 21  1  0  0  0
  3 22  2  0  0  0
  4 23  2  0  0  0
  5 24  1  0  0  0
  5 25  1  0  0  0
  6 26  1  0  0  0
  6 29  1  0  0  0
  6 30  1  0  0  0
  6 55  1  0  0  0
  7 22  1  0  0  0
  7 27  1  0  0  0
  7 31  1  0  0  0
  8 11  1  0  0  0
  8 12  1  0  0  0
  8 23  1  0  0  0
  9 13  1  0  0  0
  9 32  1  0  0  0
  9 33  1  0  0  0
  9 34  1  0  0  0
 10 22  1  0  0  0
 10 35  1  0  0  0
 10 36  1  0  0  0
 10 37  1  0  0  0
 11 13  1  0  0  0
 11 38  1  0  0  0
 11 39  1  0  0  0
 12 17  1  0  0  0
 12 40  1  0  0  0
 12 41  1  0  0  0
 13 42  1  0  0  0
 13 43  1  0  0  0
 14 15  2  0  0  0
 14 16  1  0  0  0
 14 44  1  0  0  0
 15 18  1  0  0  0
 15 45  1  0  0  0
 16 19  2  0  0  0
 16 46  1  0  0  0
 17 28  1  0  0  0
 17 47  1  0  0  0
 17 48  1  0  0  0
 18 28  2  0  0  0
 18 49  1  0  0  0
 19 28  1  0  0  0
 19 50  1  0  0  0
 20 24  2  0  0  0
 20 26  1  0  0  0
 20 51  1  0  0  0
 21 24  1  0  0  0
 23 25  1  0  0  0
 25 27  1  0  0  0
 25 52  1  0  0  0
 26 27  1  0  0  0
 26 53  1  0  0  0
 27 54  1  0  0  0
M  END
$$$$