#    Name:    1a4q_ligand
#    Version:    PDBbind v2024

@<TRIPOS>MOLECULE
1a4q_ligand
   55    56     1     0     0
SMALL
USER_CHARGES

@<TRIPOS>ATOM
      1 O1A        -3.3710   59.0640   -5.3230 O.co2     1 DPC        -0.5000
      2 O1B        -1.5990   58.1890   -4.5610 O.co2     1 DPC        -0.5000
      3 O10        -1.5630   56.1000  -11.8890 O.2       1 DPC         0.0000
      4 O7         -3.7430   58.2630   -9.9970 O.2       1 DPC         0.0000
      5 O6         -3.2930   57.6710   -7.5870 O.3       1 DPC         0.0000
      6 NE         -0.0140   55.4590   -8.4300 N.4       1 DPC         1.0000
      7 N5         -2.4990   55.1260  -10.1100 N.am      1 DPC         0.0000
      8 N8         -5.3800   57.0300  -10.1910 N.am      1 DPC         0.0000
      9 C92        -7.8370   57.4310   -8.6020 C.3       1 DPC         0.0000
     10 C11        -2.4430   53.8710  -12.2170 C.3       1 DPC         0.0000
     11 C9         -6.0810   55.8520   -9.6850 C.3       1 DPC         0.0000
     12 C81        -5.9710   57.8100  -11.3010 C.3       1 DPC         0.0000
     13 C91        -6.9620   56.1710   -8.4650 C.3       1 DPC         0.0000
     14 CZ         -7.2490   59.9920  -15.6230 C.ar      1 DPC         0.0000
     15 CE1        -6.2020   60.4850  -14.8230 C.ar      1 DPC         0.0000
     16 CE2        -7.6510   58.6560  -15.4900 C.ar      1 DPC         0.0000
     17 C82        -5.3950   57.4170  -12.6650 C.3       1 DPC         0.0000
     18 CD1        -5.5860   59.6390  -13.8840 C.ar      1 DPC         0.0000
     19 CD2        -7.0380   57.8160  -14.5550 C.ar      1 DPC         0.0000
     20 C3         -1.4120   56.5180   -6.7960 C.2       1 DPC         0.0000
     21 C1         -2.4160   58.3090   -5.4640 C.2       1 DPC         0.0000
     22 C10        -2.1370   55.1410  -11.4020 C.2       1 DPC         0.0000
     23 C7         -4.2550   57.5050   -9.6740 C.2       1 DPC         0.0000
     24 C2         -2.3440   57.4690   -6.6730 C.2       1 DPC         0.0000
     25 C6         -3.5280   56.7290   -8.5990 C.3       1 DPC         0.0000
     26 C4         -1.3790   55.6270   -8.0080 C.3       1 DPC         0.0000
     27 C5         -2.2120   56.1910   -9.1560 C.3       1 DPC         0.0000
     28 CG         -6.0130   58.3010  -13.7300 C.ar      1 DPC         0.0000
     29 H           0.5796   55.0525   -7.5979 H         1 DPC         0.0000
     30 H           0.3984   56.4326   -8.7334 H         1 DPC         0.0000
     31 H           0.0236   54.7635   -9.2814 H         1 DPC         0.0000
     32 H          -3.0493   54.2305   -9.7855 H         1 DPC         0.0000
     33 H          -8.4251   57.5707   -7.6829 H         1 DPC         0.0000
     34 H          -8.5173   57.3136   -9.4584 H         1 DPC         0.0000
     35 H          -7.1935   58.3086   -8.7625 H         1 DPC         0.0000
     36 H          -2.1002   54.0088  -13.2531 H         1 DPC         0.0000
     37 H          -3.5270   53.6840  -12.2112 H         1 DPC         0.0000
     38 H          -1.9204   53.0130  -11.7689 H         1 DPC         0.0000
     39 H          -6.7296   55.4442  -10.4743 H         1 DPC         0.0000
     40 H          -5.3472   55.0901   -9.3834 H         1 DPC         0.0000
     41 H          -7.0575   57.6405  -11.3304 H         1 DPC         0.0000
     42 H          -5.7710   58.8802  -11.1443 H         1 DPC         0.0000
     43 H          -6.2817   56.2884   -7.6086 H         1 DPC         0.0000
     44 H          -7.6055   55.2934   -8.3044 H         1 DPC         0.0000
     45 H          -7.7444   60.6449  -16.3416 H         1 DPC         0.0000
     46 H          -5.8700   61.5176  -14.9306 H         1 DPC         0.0000
     47 H          -8.4497   58.2676  -16.1219 H         1 DPC         0.0000
     48 H          -4.3035   57.5532  -12.6551 H         1 DPC         0.0000
     49 H          -5.6310   56.3629  -12.8728 H         1 DPC         0.0000
     50 H          -4.7707   60.0193  -13.2686 H         1 DPC         0.0000
     51 H          -7.3589   56.7780  -14.4669 H         1 DPC         0.0000
     52 H          -0.6588   56.3807   -6.0062 H         1 DPC         0.0000
     53 H          -4.1064   55.9007   -8.1638 H         1 DPC         0.0000
     54 H          -1.7639   54.6342   -7.7318 H         1 DPC         0.0000
     55 H          -1.6591   56.9743   -9.6952 H         1 DPC         0.0000
@<TRIPOS>BOND
     1    1   21 ar
     2    2   21 ar
     3    3   22 2
     4    4   23 2
     5    5   24 1
     6    5   25 1
     7    6   26 1
     8    6   29 1
     9    6   30 1
    10    6   31 1
    11    7   22 am
    12    7   27 1
    13    7   32 1
    14    8   11 1
    15    8   12 1
    16    8   23 am
    17    9   13 1
    18    9   33 1
    19    9   34 1
    20    9   35 1
    21   10   22 1
    22   10   36 1
    23   10   37 1
    24   10   38 1
    25   11   13 1
    26   11   39 1
    27   11   40 1
    28   12   17 1
    29   12   41 1
    30   12   42 1
    31   13   43 1
    32   13   44 1
    33   14   15 ar
    34   14   16 ar
    35   14   45 1
    36   15   18 ar
    37   15   46 1
    38   16   19 ar
    39   16   47 1
    40   17   28 1
    41   17   48 1
    42   17   49 1
    43   18   28 ar
    44   18   50 1
    45   19   28 ar
    46   19   51 1
    47   20   24 2
    48   20   26 1
    49   20   52 1
    50   21   24 1
    51   23   25 1
    52   25   27 1
    53   25   53 1
    54   26   27 1
    55   26   54 1
    56   27   55 1

