1a4w_ligand
Version: PDBbind v2024

 82 85  0  0  1  0  0  0  0  0999 V2000
   15.7830  -14.9040   14.4580 S   0  0  0  0  0  0  0  0  0  0  0  0
   15.9090  -17.5810   22.4170 S   0  0  0  0  0  0  0  0  0  0  0  0
   15.9880  -18.0130   21.0100 O   0  0  0  0  0  0  0  0  0  0  0  0
   14.9980  -18.1910   23.4020 O   0  0  0  0  0  0  0  0  0  0  0  0
   16.2120  -13.7810   22.9140 O   0  0  0  0  0  0  0  0  0  0  0  0
   17.4880  -11.9220   16.2870 O   0  0  0  0  0  0  0  0  0  0  0  0
   12.3590  -10.6740   23.0450 N   0  3  0  0  0  0  0  0  0  0  0  0
   10.7230  -11.3360   24.5660 N   0  0  0  0  0  0  0  0  0  0  0  0
   14.8930  -15.9700   22.4850 N   0  0  0  0  0  0  0  0  0  0  0  0
   18.0490  -13.5540   14.1060 N   0  0  0  0  0  0  0  0  0  0  0  0
   11.2180  -12.6470   22.7800 N   0  0  0  0  0  0  0  0  0  0  0  0
   21.3830  -15.2850   25.1040 N   0  0  0  0  0  0  0  0  0  0  0  0
   17.2800  -13.6920   20.8300 N   0  0  0  0  0  0  0  0  0  0  0  0
   21.8980  -14.2170   24.2140 C   0  0  0  0  0  0  0  0  0  0  0  0
   22.6350  -16.2130   25.4960 C   0  0  0  0  0  0  0  0  0  0  0  0
   17.0590  -15.5830   13.5080 C   0  0  0  0  0  0  0  0  0  0  0  0
   18.1460  -14.7340   13.4510 C   0  0  0  0  0  0  0  0  0  0  0  0
   11.8920  -13.1330   21.5950 C   0  0  0  0  0  0  0  0  0  0  0  0
   18.3510  -12.6800   21.3100 C   0  0  0  0  0  0  0  0  0  0  0  0
   13.2320  -13.6860   22.0580 C   0  0  0  0  0  0  0  0  0  0  0  0
   19.6960  -13.0830   20.7650 C   0  0  0  0  0  0  0  0  0  0  0  0
   19.6100  -13.4170   19.1940 C   0  0  0  0  0  0  0  0  0  0  0  0
   19.8770  -17.0460   21.5580 C   0  0  0  0  0  0  0  0  0  0  0  0
   17.8930  -15.9710   26.0280 C   0  0  0  0  0  0  0  0  0  0  0  0
   18.5430  -17.3500   21.4620 C   0  0  0  0  0  0  0  0  0  0  0  0
   18.4210  -14.4720   18.8090 C   0  0  0  0  0  0  0  0  0  0  0  0
   15.9410  -13.4250   17.1790 C   0  0  0  0  0  0  0  0  0  0  0  0
   13.9420  -14.3540   20.8790 C   0  0  0  0  0  0  0  0  0  0  0  0
   16.5930  -13.0140   18.5500 C   0  0  0  0  0  0  0  0  0  0  0  0
   19.2410  -15.5680   26.1140 C   0  0  0  0  0  0  0  0  0  0  0  0
   17.3700  -16.5100   24.8790 C   0  0  0  0  0  0  0  0  0  0  0  0
   20.4010  -16.5660   22.7660 C   0  0  0  0  0  0  0  0  0  0  0  0
   16.8640  -13.5560   14.7390 C   0  0  0  0  0  0  0  0  0  0  0  0
   11.4570  -11.5540   23.4830 C   0  0  0  0  0  0  0  0  0  0  0  0
   17.7350  -17.1780   22.6120 C   0  0  0  0  0  0  0  0  0  0  0  0
   16.3070  -14.1670   21.7520 C   0  0  0  0  0  0  0  0  0  0  0  0
   16.8250  -12.9030   16.1070 C   0  0  0  0  0  0  0  0  0  0  0  0
   17.0430  -14.0330   19.3270 C   0  0  2  0  0  0  0  0  0  0  0  0
   15.1930  -15.1140   21.2960 C   0  0  1  0  0  0  0  0  0  0  0  0
   20.0840  -15.7910   25.0460 C   0  0  0  0  0  0  0  0  0  0  0  0
   18.2050  -16.6890   23.8090 C   0  0  0  0  0  0  0  0  0  0  0  0
   19.6130  -16.3580   23.8930 C   0  0  0  0  0  0  0  0  0  0  0  0
   12.5637   -9.7617   23.6244 H   0  0  0  0  0  0  0  0  0  0  0  0
   12.8980  -10.8608   22.1045 H   0  0  0  0  0  0  0  0  0  0  0  0
   10.8948  -10.4361   25.1749 H   0  0  0  0  0  0  0  0  0  0  0  0
   14.3013  -15.5649   23.3191 H   0  0  0  0  0  0  0  0  0  0  0  0
   10.3811  -13.2172   23.2096 H   0  0  0  0  0  0  0  0  0  0  0  0
   22.9472  -14.0036   24.4664 H   0  0  0  0  0  0  0  0  0  0  0  0
   21.2961  -13.3061   24.3480 H   0  0  0  0  0  0  0  0  0  0  0  0
   21.8329  -14.5489   23.1673 H   0  0  0  0  0  0  0  0  0  0  0  0
   23.5562  -15.6120   25.4796 H   0  0  0  0  0  0  0  0  0  0  0  0
   22.7217  -17.0367   24.7721 H   0  0  0  0  0  0  0  0  0  0  0  0
   22.4841  -16.6254   26.5045 H   0  0  0  0  0  0  0  0  0  0  0  0
   17.0884  -16.5501   12.9847 H   0  0  0  0  0  0  0  0  0  0  0  0
   19.0445  -15.0279   12.8886 H   0  0  0  0  0  0  0  0  0  0  0  0
   11.2836  -13.9188   21.1235 H   0  0  0  0  0  0  0  0  0  0  0  0
   12.0322  -12.3032   20.8866 H   0  0  0  0  0  0  0  0  0  0  0  0
   18.0932  -11.6739   20.9477 H   0  0  0  0  0  0  0  0  0  0  0  0
   18.3852  -12.6762   22.4095 H   0  0  0  0  0  0  0  0  0  0  0  0
   13.8541  -12.8648   22.4435 H   0  0  0  0  0  0  0  0  0  0  0  0
   13.0676  -14.4265   22.8546 H   0  0  0  0  0  0  0  0  0  0  0  0
   20.4119  -12.2606   20.9104 H   0  0  0  0  0  0  0  0  0  0  0  0
   20.0532  -13.9781   21.2952 H   0  0  0  0  0  0  0  0  0  0  0  0
   19.4198  -12.4907   18.6321 H   0  0  0  0  0  0  0  0  0  0  0  0
   20.5603  -13.8595   18.8606 H   0  0  0  0  0  0  0  0  0  0  0  0
   20.4757  -17.1668   20.7662 H   0  0  0  0  0  0  0  0  0  0  0  0
   17.3011  -15.8612   26.8265 H   0  0  0  0  0  0  0  0  0  0  0  0
   18.1521  -17.6837   20.6042 H   0  0  0  0  0  0  0  0  0  0  0  0
   18.3539  -14.5656   17.7150 H   0  0  0  0  0  0  0  0  0  0  0  0
   18.6467  -15.4551   19.2479 H   0  0  0  0  0  0  0  0  0  0  0  0
   15.8658  -14.5210   17.1227 H   0  0  0  0  0  0  0  0  0  0  0  0
   14.9359  -12.9842   17.1042 H   0  0  0  0  0  0  0  0  0  0  0  0
   13.2594  -15.0699   20.3978 H   0  0  0  0  0  0  0  0  0  0  0  0
   14.2427  -13.5872   20.1499 H   0  0  0  0  0  0  0  0  0  0  0  0
   17.4626  -12.3669   18.3630 H   0  0  0  0  0  0  0  0  0  0  0  0
   15.8554  -12.4702   19.1584 H   0  0  0  0  0  0  0  0  0  0  0  0
   19.5829  -15.1242   26.9424 H   0  0  0  0  0  0  0  0  0  0  0  0
   16.4046  -16.7652   24.8250 H   0  0  0  0  0  0  0  0  0  0  0  0
   21.3792  -16.3653   22.8197 H   0  0  0  0  0  0  0  0  0  0  0  0
   16.1884  -14.7086   19.1744 H   0  0  0  0  0  0  0  0  0  0  0  0
   15.5018  -15.7154   20.4282 H   0  0  0  0  0  0  0  0  0  0  0  0
    9.9425  -12.0551   24.8553 H   0  0  0  0  0  0  0  0  0  0  0  0
  1 16  1  0  0  0  0
  1 33  1  0  0  0  0
  2  3  2  0  0  0  0
  2  4  2  0  0  0  0
  2  9  1  0  0  0  0
  2 35  1  0  0  0  0
  5 36  2  0  0  0  0
  6 37  2  0  0  0  0
  7 34  2  0  0  0  0
  7 43  1  0  0  0  0
  7 44  1  0  0  0  0
  8 34  1  0  0  0  0
  8 45  1  0  0  0  0
  8 82  1  0  0  0  0
  9 39  1  0  0  0  0
  9 46  1  0  0  0  0
 10 17  1  0  0  0  0
 10 33  2  0  0  0  0
 11 18  1  0  0  0  0
 11 34  1  0  0  0  0
 11 47  1  0  0  0  0
 12 14  1  0  0  0  0
 12 15  1  0  0  0  0
 12 40  1  0  0  0  0
 13 19  1  0  0  0  0
 13 36  1  0  0  0  0
 13 38  1  0  0  0  0
 14 48  1  0  0  0  0
 14 49  1  0  0  0  0
 14 50  1  0  0  0  0
 15 51  1  0  0  0  0
 15 52  1  0  0  0  0
 15 53  1  0  0  0  0
 16 17  2  0  0  0  0
 16 54  1  0  0  0  0
 17 55  1  0  0  0  0
 18 20  1  0  0  0  0
 18 56  1  0  0  0  0
 18 57  1  0  0  0  0
 19 21  1  0  0  0  0
 19 58  1  0  0  0  0
 19 59  1  0  0  0  0
 20 28  1  0  0  0  0
 20 60  1  0  0  0  0
 20 61  1  0  0  0  0
 21 22  1  0  0  0  0
 21 62  1  0  0  0  0
 21 63  1  0  0  0  0
 22 26  1  0  0  0  0
 22 64  1  0  0  0  0
 22 65  1  0  0  0  0
 23 25  1  0  0  0  0
 23 32  2  0  0  0  0
 23 66  1  0  0  0  0
 24 30  1  0  0  0  0
 24 31  2  0  0  0  0
 24 67  1  0  0  0  0
 25 35  2  0  0  0  0
 25 68  1  0  0  0  0
 26 38  1  0  0  0  0
 26 69  1  0  0  0  0
 26 70  1  0  0  0  0
 27 29  1  0  0  0  0
 27 37  1  0  0  0  0
 27 71  1  0  0  0  0
 27 72  1  0  0  0  0
 28 39  1  0  0  0  0
 28 73  1  0  0  0  0
 28 74  1  0  0  0  0
 29 38  1  0  0  0  0
 29 75  1  0  0  0  0
 29 76  1  0  0  0  0
 30 40  2  0  0  0  0
 30 77  1  0  0  0  0
 31 41  1  0  0  0  0
 31 78  1  0  0  0  0
 32 42  1  0  0  0  0
 32 79  1  0  0  0  0
 33 37  1  0  0  0  0
 35 41  1  0  0  0  0
 36 39  1  0  0  0  0
 38 80  1  0  0  0  0
 39 81  1  0  0  0  0
 40 42  1  0  0  0  0
 41 42  2  0  0  0  0
M  END
$$$$