#    Name:    1a4w_ligand
#    Version:    PDBbind v2024

@<TRIPOS>MOLECULE
1a4w_ligand
   82    85     1     0     0
SMALL
USER_CHARGES

@<TRIPOS>ATOM
      1 C1         17.7350  -17.1780   22.6120 C.ar      1 QWE         0.0000
      2 C2         18.5430  -17.3500   21.4620 C.ar      1 QWE         0.0000
      3 C3         19.8770  -17.0460   21.5580 C.ar      1 QWE         0.0000
      4 C4         20.4010  -16.5660   22.7660 C.ar      1 QWE         0.0000
      5 C4A        19.6130  -16.3580   23.8930 C.ar      1 QWE         0.0000
      6 C5         20.0840  -15.7910   25.0460 C.ar      1 QWE         0.0000
      7 C6         19.2410  -15.5680   26.1140 C.ar      1 QWE         0.0000
      8 C7         17.8930  -15.9710   26.0280 C.ar      1 QWE         0.0000
      9 C8         17.3700  -16.5100   24.8790 C.ar      1 QWE         0.0000
     10 C8A        18.2050  -16.6890   23.8090 C.ar      1 QWE         0.0000
     11 N          21.3830  -15.2850   25.1040 N.pl3     1 QWE         0.0000
     12 CM1        21.8980  -14.2170   24.2140 C.3       1 QWE         0.0000
     13 CM2        22.6350  -16.2130   25.4960 C.3       1 QWE         0.0000
     14 S          15.9090  -17.5810   22.4170 S.o2      1 QWE         0.0000
     15 O1S        15.9880  -18.0130   21.0100 O.2       1 QWE         0.0000
     16 O2S        14.9980  -18.1910   23.4020 O.2       1 QWE         0.0000
     17 N1         14.8930  -15.9700   22.4850 N.am      1 QWE         0.0000
     18 CA         15.1930  -15.1140   21.2960 C.3       1 QWE         0.0000
     19 C          16.3070  -14.1670   21.7520 C.2       1 QWE         0.0000
     20 O          16.2120  -13.7810   22.9140 O.2       1 QWE         0.0000
     21 CB         13.9420  -14.3540   20.8790 C.3       1 QWE         0.0000
     22 CG         13.2320  -13.6860   22.0580 C.3       1 QWE         0.0000
     23 CD         11.8920  -13.1330   21.5950 C.3       1 QWE         0.0000
     24 NE         11.2180  -12.6470   22.7800 N.pl3     1 QWE         0.0000
     25 CZ         11.4570  -11.5540   23.4830 C.cat     1 QWE         1.0000
     26 NH1        12.3590  -10.6740   23.0450 N.pl3     1 QWE         0.0000
     27 NH2        10.7230  -11.3360   24.5660 N.pl3     1 QWE         0.0000
     28 N11        17.2800  -13.6920   20.8300 N.am      1 QWE         0.0000
     29 C21        17.0430  -14.0330   19.3270 C.3       1 QWE         0.0000
     30 C31        18.4210  -14.4720   18.8090 C.3       1 QWE         0.0000
     31 C41        19.6100  -13.4170   19.1940 C.3       1 QWE         0.0000
     32 C51        19.6960  -13.0830   20.7650 C.3       1 QWE         0.0000
     33 C61        18.3510  -12.6800   21.3100 C.3       1 QWE         0.0000
     34 C1'        16.5930  -13.0140   18.5500 C.3       1 QWE         0.0000
     35 C2'        15.9410  -13.4250   17.1790 C.3       1 QWE         0.0000
     36 S1         15.7830  -14.9040   14.4580 S.3       1 QWE         0.0000
     37 O2         17.4880  -11.9220   16.2870 O.2       1 QWE         0.0000
     38 C52        17.0590  -15.5830   13.5080 C.2       1 QWE         0.0000
     39 C22        16.8640  -13.5560   14.7390 C.2       1 QWE         0.0000
     40 C2'1       16.8250  -12.9030   16.1070 C.2       1 QWE         0.0000
     41 C42        18.1460  -14.7340   13.4510 C.2       1 QWE         0.0000
     42 N3         18.0490  -13.5540   14.1060 N.2       1 QWE         0.0000
     43 H          18.1193  -17.7117   20.5321 H         1 QWE         0.0000
     44 H          20.5259  -17.1770   20.6996 H         1 QWE         0.0000
     45 H          21.4614  -16.3485   22.8242 H         1 QWE         0.0000
     46 H          19.6116  -15.0870   27.0119 H         1 QWE         0.0000
     47 H          17.2513  -15.8519   26.8935 H         1 QWE         0.0000
     48 H          16.3235  -16.7866   24.8204 H         1 QWE         0.0000
     49 H          21.0707  -13.5546   23.9193 H         1 QWE         0.0000
     50 H          22.3422  -14.6708   23.3158 H         1 QWE         0.0000
     51 H          22.6632  -13.6332   24.7466 H         1 QWE         0.0000
     52 H          22.2975  -17.0231   26.1592 H         1 QWE         0.0000
     53 H          23.3928  -15.6068   26.0140 H         1 QWE         0.0000
     54 H          23.0717  -16.6443   24.5832 H         1 QWE         0.0000
     55 H          14.3013  -15.5649   23.3191 H         1 QWE         0.0000
     56 H          15.5018  -15.7154   20.4282 H         1 QWE         0.0000
     57 H          14.2139  -13.5662   20.1611 H         1 QWE         0.0000
     58 H          13.2305  -15.0488   20.4089 H         1 QWE         0.0000
     59 H          13.0678  -14.4267   22.8545 H         1 QWE         0.0000
     60 H          13.8544  -12.8650   22.4434 H         1 QWE         0.0000
     61 H          12.0605  -12.3179   20.8758 H         1 QWE         0.0000
     62 H          11.3119  -13.9335   21.1126 H         1 QWE         0.0000
     63 H          10.3811  -13.2172   23.2096 H         1 QWE         0.0000
     64 H          12.9477  -10.8931   22.1420 H         1 QWE         0.0000
     65 H          12.5140   -9.7294   23.5869 H         1 QWE         0.0000
     66 H           9.9898  -12.0876   24.8939 H         1 QWE         0.0000
     67 H          10.8475  -10.4037   25.1363 H         1 QWE         0.0000
     68 H          16.1884  -14.7086   19.1744 H         1 QWE         0.0000
     69 H          18.6833  -15.4470   19.2457 H         1 QWE         0.0000
     70 H          18.3905  -14.5575   17.7128 H         1 QWE         0.0000
     71 H          20.5824  -13.8354   18.8950 H         1 QWE         0.0000
     72 H          19.4419  -12.4665   18.6664 H         1 QWE         0.0000
     73 H          20.0436  -13.9727   21.3105 H         1 QWE         0.0000
     74 H          20.4023  -12.2552   20.9258 H         1 QWE         0.0000
     75 H          18.0932  -11.6739   20.9477 H         1 QWE         0.0000
     76 H          18.3852  -12.6762   22.4095 H         1 QWE         0.0000
     77 H          15.8231  -12.4491   19.0959 H         1 QWE         0.0000
     78 H          17.4303  -12.3457   18.3006 H         1 QWE         0.0000
     79 H          15.8658  -14.5210   17.1227 H         1 QWE         0.0000
     80 H          14.9359  -12.9842   17.1042 H         1 QWE         0.0000
     81 H          17.0111  -16.5545   13.0182 H         1 QWE         0.0000
     82 H          19.0462  -15.0034   12.9005 H         1 QWE         0.0000
@<TRIPOS>BOND
     1    1   14 1
     2    1   10 ar
     3    1    2 ar
     4    2    3 ar
     5    2   43 1
     6    3    4 ar
     7    3   44 1
     8    4    5 ar
     9    4   45 1
    10    5   10 ar
    11    5    6 ar
    12    6   11 1
    13    6    7 ar
    14    7    8 ar
    15    7   46 1
    16    8    9 ar
    17    8   47 1
    18    9   10 ar
    19    9   48 1
    20   11   13 1
    21   11   12 1
    22   12   49 1
    23   12   50 1
    24   12   51 1
    25   13   52 1
    26   13   53 1
    27   13   54 1
    28   14   16 2
    29   14   15 2
    30   14   17 am
    31   17   18 1
    32   17   55 1
    33   18   19 1
    34   18   21 1
    35   18   56 1
    36   19   20 2
    37   19   28 am
    38   21   22 1
    39   21   57 1
    40   21   58 1
    41   22   23 1
    42   22   59 1
    43   22   60 1
    44   23   24 1
    45   23   61 1
    46   23   62 1
    47   24   25 ar
    48   24   63 1
    49   25   26 ar
    50   25   27 ar
    51   26   64 1
    52   26   65 1
    53   27   66 1
    54   27   67 1
    55   28   33 1
    56   28   29 1
    57   29   34 1
    58   29   30 1
    59   29   68 1
    60   30   31 1
    61   30   69 1
    62   30   70 1
    63   31   32 1
    64   31   71 1
    65   31   72 1
    66   32   33 1
    67   32   73 1
    68   32   74 1
    69   33   75 1
    70   33   76 1
    71   34   35 1
    72   34   77 1
    73   34   78 1
    74   35   40 1
    75   35   79 1
    76   35   80 1
    77   36   39 1
    78   36   38 1
    79   37   40 2
    80   38   41 2
    81   38   81 1
    82   39   42 2
    83   39   40 1
    84   41   42 1
    85   41   82 1

