#    Name:    2cli_ligand
#    Version:    PDBbind v2024

@<TRIPOS>MOLECULE
2cli_ligand
   31    31     1     0     0
SMALL
USER_CHARGES

@<TRIPOS>ATOM
      1 S12        48.1940   27.2170   15.5520 S.o2      1 F9F         0.0000
      2 P17        48.0480   29.4660   10.0210 P.3       1 F9F         0.0000
      3 F9F        52.3740   20.2670   14.0460 F         1 F9F         0.0000
      4 F10        50.3800   20.8300   13.6300 F         1 F9F         0.0000
      5 F11        50.9450   20.3080   15.6980 F         1 F9F         0.0000
      6 O21        48.0870   27.4380   17.0120 O.2       1 F9F         0.0000
      7 O22        46.8790   26.9040   14.9320 O.2       1 F9F         0.0000
      8 O18        49.2120   30.3470   10.3130 O.co2     1 F9F        -0.6667
      9 O19        48.2890   28.6460    8.8260 O.co2     1 F9F        -0.6667
     10 O20        46.8070   30.2620    9.8870 O.co2     1 F9F        -0.6667
     11 O16        47.7940   28.4390   11.2590 O.3       1 F9F         0.0000
     12 O7         51.7890   22.3450   14.7630 O.3       1 F9F         0.0000
     13 N13        48.7980   28.5920   14.7060 N.am      1 F9F         0.0000
     14 C15        47.8140   28.9640   12.5750 C.3       1 F9F         0.0000
     15 C14        48.9810   28.4750   13.2410 C.3       1 F9F         0.0000
     16 C3         48.9080   24.5840   15.9470 C.ar      1 F9F         0.0000
     17 C5         50.4920   25.7890   14.4320 C.ar      1 F9F         0.0000
     18 C2         49.6770   23.3090   15.8670 C.ar      1 F9F         0.0000
     19 C6         51.2740   24.6020   14.3160 C.ar      1 F9F         0.0000
     20 C4         49.2410   25.7730   15.3120 C.ar      1 F9F         0.0000
     21 C1         50.8670   23.3970   15.0090 C.ar      1 F9F         0.0000
     22 C8         51.3560   20.9420   14.5680 C.3       1 F9F         0.0000
     23 H          49.1953   29.4667   15.2418 H         1 F9F         0.0000
     24 H          47.8396   30.0628   12.5310 H         1 F9F         0.0000
     25 H          46.9111   28.6395   13.1130 H         1 F9F         0.0000
     26 H          49.8550   29.0673   12.9322 H         1 F9F         0.0000
     27 H          49.1405   27.4198   12.9745 H         1 F9F         0.0000
     28 H          48.0051   24.5825   16.5576 H         1 F9F         0.0000
     29 H          50.7819   26.6955   13.9007 H         1 F9F         0.0000
     30 H          49.3851   22.4003   16.3935 H         1 F9F         0.0000
     31 H          52.1774   24.6016   13.7062 H         1 F9F         0.0000
@<TRIPOS>BOND
     1    1    6 2
     2    1    7 2
     3    1   13 am
     4    1   20 1
     5    2    8 ar
     6    2    9 ar
     7    2   10 ar
     8    2   11 1
     9    3   22 1
    10    4   22 1
    11    5   22 1
    12   11   14 1
    13   12   21 1
    14   12   22 1
    15   13   15 1
    16   13   23 1
    17   14   15 1
    18   14   24 1
    19   14   25 1
    20   15   26 1
    21   15   27 1
    22   16   18 ar
    23   16   20 ar
    24   16   28 1
    25   17   19 ar
    26   17   20 ar
    27   17   29 1
    28   18   21 ar
    29   18   30 1
    30   19   21 ar
    31   19   31 1

