2cli_ligand
Version: PDBbind v2024

 31 31  0  0  1  0            999 V2000
   48.1940   27.2170   15.5520 S   0  0  0  0  0  0
   48.0480   29.4660   10.0210 P   0  0  0  0  0  0
   52.3740   20.2670   14.0460 F   0  0  0  0  0  0
   50.3800   20.8300   13.6300 F   0  0  0  0  0  0
   50.9450   20.3080   15.6980 F   0  0  0  0  0  0
   48.0870   27.4380   17.0120 O   0  0  0  0  0  0
   46.8790   26.9040   14.9320 O   0  0  0  0  0  0
   49.2120   30.3470   10.3130 O   0  0  0  0  0  0
   48.2890   28.6460    8.8260 O   0  5  0  0  0  0
   46.8070   30.2620    9.8870 O   0  5  0  0  0  0
   47.7940   28.4390   11.2590 O   0  0  0  0  0  0
   51.7890   22.3450   14.7630 O   0  0  0  0  0  0
   48.7980   28.5920   14.7060 N   0  0  2  0  0  0
   47.8140   28.9640   12.5750 C   0  0  0  0  0  0
   48.9810   28.4750   13.2410 C   0  0  0  0  0  0
   48.9080   24.5840   15.9470 C   0  0  0  0  0  0
   50.4920   25.7890   14.4320 C   0  0  0  0  0  0
   49.6770   23.3090   15.8670 C   0  0  0  0  0  0
   51.2740   24.6020   14.3160 C   0  0  0  0  0  0
   49.2410   25.7730   15.3120 C   0  0  0  0  0  0
   50.8670   23.3970   15.0090 C   0  0  0  0  0  0
   51.3560   20.9420   14.5680 C   0  0  0  0  0  0
   49.1953   29.4667   15.2418 H   0  0  0  0  0  0
   47.8396   30.0628   12.5310 H   0  0  0  0  0  0
   46.9111   28.6395   13.1130 H   0  0  0  0  0  0
   49.8550   29.0673   12.9322 H   0  0  0  0  0  0
   49.1405   27.4198   12.9745 H   0  0  0  0  0  0
   48.0797   24.5826   16.5072 H   0  0  0  0  0  0
   50.7580   26.6206   13.9445 H   0  0  0  0  0  0
   49.4092   22.4754   16.3500 H   0  0  0  0  0  0
   52.1028   24.6016   13.7565 H   0  0  0  0  0  0
  1  6  2  0  0  0
  1  7  2  0  0  0
  1 13  1  0  0  0
  1 20  1  0  0  0
  2  8  2  0  0  0
  2  9  1  0  0  0
  2 10  1  0  0  0
  2 11  1  0  0  0
  3 22  1  0  0  0
  4 22  1  0  0  0
  5 22  1  0  0  0
 11 14  1  0  0  0
 12 21  1  0  0  0
 12 22  1  0  0  0
 13 15  1  0  0  0
 13 23  1  0  0  0
 14 15  1  0  0  0
 14 24  1  0  0  0
 14 25  1  0  0  0
 15 26  1  0  0  0
 15 27  1  0  0  0
 16 18  2  0  0  0
 16 20  1  0  0  0
 16 28  1  0  0  0
 17 19  1  0  0  0
 17 20  2  0  0  0
 17 29  1  0  0  0
 18 21  1  0  0  0
 18 30  1  0  0  0
 19 21  2  0  0  0
 19 31  1  0  0  0
M  END
$$$$